data_image0
_chemical_formula_structural       CNH2CNH2N2CNH2CNH2CNH2CNH2CNH2NCNH2NCNH2CNH2ZnC2HC2HC2HC2HC2HCNH2CNH2CNH2N2HCNH2CNH2CNH2CNHNCNH2CNH2CNH2NZn5C2HC2HC2HC2HC2HCNH2CNH2N2CNH2CNH2CNH2CNH2CNH2CNH2N2CNH2CNH2Zn2C2HC2HC2HC2HC2HCNH2CNH2CNH2N2HCNH2CNH2CNH2CNHCNH2NCNH2CNH2NZn6C2HC2HC2HC2HC2HCNH2CNH2N2CNH2CNH2CNH2CNH2CNH2NCNH2NCNH2CNH2ZnC2HC2HC2HC2HC2HCNH2CNH2CNH2N2HCNH2CNH2CNH2CNHNCNH2CNH2CNH2NZn5C2HC2HC2HC2HC2HCNH2CNH2N2CNH2CNH2CNH2CNH2CNH2CNH2N2CNH2CNH2Zn2C2HC2HC2HC2HC2HCNH2CNH2CNH2N2HCNH2CNH2CNH2CNHCNH2NCNH2CNH2NZn6C2HC2HC2HC2HC2HO2U
_chemical_formula_sum              "C160 N112 H200 Zn28 O2 U1"
_cell_length_a       45.0
_cell_length_b       33.695
_cell_length_c       73.06827300000002
_cell_angle_alpha    90.0
_cell_angle_beta     90.0
_cell_angle_gamma    90.0

_space_group_name_H-M_alt    "P 1"
_space_group_IT_number       1

loop_
  _space_group_symop_operation_xyz
  'x, y, z'

loop_
  _atom_site_type_symbol
  _atom_site_label
  _atom_site_symmetry_multiplicity
  _atom_site_fract_x
  _atom_site_fract_y
  _atom_site_fract_z
  _atom_site_occupancy
  C   C1        1.0  0.33482  0.19260000000000005  0.3107925925661332  1.0000
  N   N1        1.0  0.34185000000000004  0.23140000000000005  0.3153809759538178  1.0000
  H   H1        1.0  0.30528  0.3046500000000001  0.3007627092814961  1.0000
  H   H2        1.0  0.34324000000000005  0.17035000000000006  0.3156807195922092  1.0000
  C   C2        1.0  0.33482  0.30740000000000006  0.46721265740056545  1.0000
  N   N2        1.0  0.34185000000000004  0.26860000000000006  0.4626242740128809  1.0000
  H   H3        1.0  0.30528  0.19535000000000005  0.47724254068520255  1.0000
  H   H4        1.0  0.34324000000000005  0.3296500000000001  0.4623245303744895  1.0000
  N   N3        1.0  0.25485  0.20655  0.4957113602507068  1.0000
  N   N4        1.0  0.25485  0.29345  0.28229388971599195  1.0000
  C   C3        1.0  0.31419  0.4471500000000001  0.41547229397361  1.0000
  N   N5        1.0  0.30674  0.4565500000000001  0.3975799044819356  1.0000
  H   H5        1.0  0.33047000000000004  0.4077  0.3638011021555141  1.0000
  H   H6        1.0  0.3062500000000001  0.4584  0.425732749287779  1.0000
  C   C4        1.0  0.33141  0.33040000000000014  0.3646311614618289  1.0000
  N   N6        1.0  0.3604600000000001  0.34035  0.36896591561702835  1.0000
  H   H7        1.0  0.31475  0.341  0.36981903212629635  1.0000
  H   H8        1.0  0.33347  0.30865  0.43156622163493574  1.0000
  C   C5        1.0  0.33141  0.1696  0.41337408850486984  1.0000
  N   N7        1.0  0.3604600000000001  0.15965  0.4090393343496703  1.0000
  H   H9        1.0  0.31475  0.159  0.4081862178404024  1.0000
  H   H10       1.0  0.33347  0.19135000000000005  0.346439028331763  1.0000
  C   C6        1.0  0.33141  0.19715000000000005  0.42607860733207686  1.0000
  N   N8        1.0  0.3604600000000001  0.20655  0.43066699071976133  1.0000
  H   H11       1.0  0.31475  0.2084  0.4309667343581528  1.0000
  H   H12       1.0  0.33347  0.3423  0.4160487240474397  1.0000
  C   C7        1.0  0.33141  0.30285  0.3519266426346219  1.0000
  N   N9        1.0  0.3604600000000001  0.29345  0.34733825924693734  1.0000
  H   H13       1.0  0.31475  0.29160000000000014  0.34703851560854587  1.0000
  H   H14       1.0  0.33347  0.15770000000000003  0.361956525919259  1.0000
  N   N10       1.0  0.34185000000000004  0.09035  0.3804253454847632  1.0000
  C   C8        1.0  0.33482  0.4196  0.41547229397361  1.0000
  N   N11       1.0  0.34185000000000004  0.4096500000000001  0.3975799044819356  1.0000
  H   H15       1.0  0.30528  0.44135  0.3638011021555141  1.0000
  H   H16       1.0  0.34324000000000005  0.4090000000000001  0.425732749287779  1.0000
  N   N12       1.0  0.25485  0.48140000000000005  0.36896591561702835  1.0000
  C   C9        1.0  0.31419  0.19260000000000005  0.29808807373892626  1.0000
  N   N13       1.0  0.30674  0.23140000000000005  0.29375331958372675  1.0000
  H   H17       1.0  0.33047000000000004  0.3046500000000001  0.31628020686899216  1.0000
  H   H18       1.0  0.3062500000000001  0.17035000000000006  0.2929002030744588  1.0000
  C   C10       1.0  0.31419  0.30740000000000006  0.4799171762277725  1.0000
  N   N14       1.0  0.30674  0.26860000000000006  0.48425193038297204  1.0000
  H   H19       1.0  0.33047000000000004  0.19535000000000005  0.46172504309770657  1.0000
  H   H20       1.0  0.3062500000000001  0.3296500000000001  0.48510504689223993  1.0000
  Zn  Zn1       1.0  0.28079  0.25  0.2737166102174058  1.0000
  C   C11       1.0  0.32514  0.2518  0.30404605498203024  1.0000
  C   C12       1.0  0.32526  0.2953  0.30397227193258003  1.0000
  H   H21       1.0  0.3397200000000001  0.30545  0.29506758015205853  1.0000
  C   C13       1.0  0.32514  0.2482  0.47395919498466854  1.0000
  C   C14       1.0  0.32526  0.2047  0.4740329780341187  1.0000
  H   H22       1.0  0.3397200000000001  0.19455  0.4829376698146402  1.0000
  C   C15       1.0  0.32514  0.43423  0.38817256567703456  1.0000
  C   C16       1.0  0.32526  0.43439  0.3681127991077604  1.0000
  H   H23       1.0  0.3397200000000001  0.4537000000000001  0.36343218690826307  1.0000
  C   C17       1.0  0.37304  0.31577  0.4193320697479738  1.0000
  C   C18       1.0  0.34047  0.31561  0.4192582866985236  1.0000
  H   H24       1.0  0.33287  0.2963  0.4103535949180021  1.0000
  C   C19       1.0  0.37304  0.18423  0.3586731802187249  1.0000
  C   C20       1.0  0.34047  0.18439  0.3587469632681751  1.0000
  H   H25       1.0  0.33287  0.2037  0.36765165504869657  1.0000
  C   C21       1.0  0.41396  0.30740000000000006  0.3107925925661332  1.0000
  N   N15       1.0  0.40692  0.26860000000000006  0.3153809759538178  1.0000
  H   H26       1.0  0.4435  0.19535000000000005  0.3007627092814961  1.0000
  H   H27       1.0  0.40554000000000007  0.3296500000000001  0.3156807195922092  1.0000
  C   C22       1.0  0.41396  0.19260000000000005  0.46721265740056545  1.0000
  N   N16       1.0  0.40692  0.23140000000000005  0.4626242740128809  1.0000
  H   H28       1.0  0.4435  0.3046500000000001  0.47724254068520255  1.0000
  H   H29       1.0  0.40554000000000007  0.17035000000000006  0.4623245303744895  1.0000
  C   C23       1.0  0.43459  0.4471500000000001  0.3625329559930887  1.0000
  N   N17       1.0  0.44204  0.4565500000000001  0.3804253454847632  1.0000
  H   H30       1.0  0.41831  0.4077  0.4142041478111847  1.0000
  H   H31       1.0  0.44253000000000003  0.4584  0.3522725006789198  1.0000
  N   N18       1.0  0.49393  0.29345  0.4957113602507068  1.0000
  N   N19       1.0  0.49393  0.20655  0.28229388971599195  1.0000
  H   H32       1.0  0.41531000000000007  0.30865  0.346439028331763  1.0000
  C   C24       1.0  0.41737  0.33040000000000014  0.41337408850486984  1.0000
  N   N20       1.0  0.38832  0.34035  0.4090393343496703  1.0000
  H   H33       1.0  0.43403  0.341  0.4081862178404024  1.0000
  H   H34       1.0  0.41531000000000007  0.19135000000000005  0.43156622163493574  1.0000
  C   C25       1.0  0.41737  0.1696  0.3646311614618289  1.0000
  N   N21       1.0  0.38832  0.15965  0.36896591561702835  1.0000
  H   H35       1.0  0.43403  0.159  0.36981903212629635  1.0000
  H   H36       1.0  0.41531000000000007  0.15770000000000003  0.4160487240474397  1.0000
  C   C26       1.0  0.41737  0.30285  0.42607860733207686  1.0000
  N   N22       1.0  0.38832  0.29345  0.43066699071976133  1.0000
  H   H37       1.0  0.43403  0.29160000000000014  0.4309667343581528  1.0000
  H   H38       1.0  0.41531000000000007  0.3423  0.361956525919259  1.0000
  C   C27       1.0  0.41737  0.19715000000000005  0.3519266426346219  1.0000
  N   N23       1.0  0.38832  0.20655  0.34733825924693734  1.0000
  H   H39       1.0  0.43403  0.2084  0.34703851560854587  1.0000
  N   N24       1.0  0.40692  0.09035  0.3975799044819356  1.0000
  C   C28       1.0  0.41396  0.4196  0.3625329559930887  1.0000
  N   N25       1.0  0.40692  0.4096500000000001  0.3804253454847632  1.0000
  H   H40       1.0  0.4435  0.44135  0.4142041478111847  1.0000
  H   H41       1.0  0.40554000000000007  0.4090000000000001  0.3522725006789198  1.0000
  C   C29       1.0  0.43459  0.19260000000000005  0.4799171762277725  1.0000
  N   N26       1.0  0.44204  0.23140000000000005  0.48425193038297204  1.0000
  H   H42       1.0  0.41831  0.3046500000000001  0.46172504309770657  1.0000
  H   H43       1.0  0.44253000000000003  0.17035000000000006  0.48510504689223993  1.0000
  C   C30       1.0  0.43459  0.30740000000000006  0.29808807373892626  1.0000
  N   N27       1.0  0.44204  0.26860000000000006  0.29375331958372675  1.0000
  H   H44       1.0  0.41831  0.19535000000000005  0.31628020686899216  1.0000
  H   H45       1.0  0.44253000000000003  0.3296500000000001  0.2929002030744588  1.0000
  N   N28       1.0  0.49393  0.48140000000000005  0.4090393343496703  1.0000
  Zn  Zn2       1.0  0.4679900000000001  0.25  0.2737166102174058  1.0000
  Zn  Zn3       1.0  0.37439  0.3750000000000001  0.3890026249833493  1.0000
  Zn  Zn4       1.0  0.37439  0.125  0.3890026249833493  1.0000
  Zn  Zn5       1.0  0.37439  0.25  0.4466456323663212  1.0000
  Zn  Zn6       1.0  0.37439  0.25  0.3313596176003776  1.0000
  C   C31       1.0  0.42364  0.2482  0.30404605498203024  1.0000
  C   C32       1.0  0.42352  0.2047  0.30397227193258003  1.0000
  H   H46       1.0  0.40906  0.19455  0.29506758015205853  1.0000
  C   C33       1.0  0.42364  0.2518  0.47395919498466854  1.0000
  C   C34       1.0  0.42352  0.2953  0.4740329780341187  1.0000
  H   H47       1.0  0.40906  0.30545  0.4829376698146402  1.0000
  C   C35       1.0  0.42364  0.43423  0.3898326842896641  1.0000
  C   C36       1.0  0.42352  0.43439  0.40989245085893833  1.0000
  H   H48       1.0  0.40906  0.4537000000000001  0.41457306305843566  1.0000
  C   C37       1.0  0.37574  0.31577  0.3586731802187249  1.0000
  C   C38       1.0  0.40831  0.31561  0.3587469632681751  1.0000
  H   H49       1.0  0.41591  0.2963  0.36765165504869657  1.0000
  C   C39       1.0  0.37574  0.18423  0.4193320697479738  1.0000
  C   C40       1.0  0.40831  0.18439  0.4192582866985236  1.0000
  H   H50       1.0  0.41591  0.2037  0.4103535949180021  1.0000
  C   C41       1.0  0.33482  0.6926000000000002  0.3107925925661332  1.0000
  N   N29       1.0  0.34185000000000004  0.7314000000000003  0.3153809759538178  1.0000
  H   H51       1.0  0.30528  0.8046500000000001  0.3007627092814961  1.0000
  H   H52       1.0  0.34324000000000005  0.67035  0.3156807195922092  1.0000
  C   C42       1.0  0.33482  0.8074  0.46721265740056545  1.0000
  N   N30       1.0  0.34185000000000004  0.7686  0.4626242740128809  1.0000
  H   H53       1.0  0.30528  0.69535  0.47724254068520255  1.0000
  H   H54       1.0  0.34324000000000005  0.82965  0.4623245303744895  1.0000
  N   N31       1.0  0.25485  0.70655  0.4957113602507068  1.0000
  N   N32       1.0  0.25485  0.7934500000000002  0.28229388971599195  1.0000
  C   C43       1.0  0.31419  0.55285  0.3625329559930887  1.0000
  N   N33       1.0  0.30674  0.54345  0.3804253454847632  1.0000
  H   H55       1.0  0.33047000000000004  0.5923  0.4142041478111847  1.0000
  H   H56       1.0  0.3062500000000001  0.5416  0.3522725006789198  1.0000
  C   C44       1.0  0.33141  0.8304  0.3646311614618289  1.0000
  N   N34       1.0  0.3604600000000001  0.8403500000000003  0.36896591561702835  1.0000
  H   H57       1.0  0.31475  0.8410000000000002  0.36981903212629635  1.0000
  H   H58       1.0  0.33347  0.80865  0.43156622163493574  1.0000
  C   C45       1.0  0.33141  0.6696000000000002  0.41337408850486984  1.0000
  N   N35       1.0  0.3604600000000001  0.65965  0.4090393343496703  1.0000
  H   H59       1.0  0.31475  0.659  0.4081862178404024  1.0000
  H   H60       1.0  0.33347  0.69135  0.346439028331763  1.0000
  C   C46       1.0  0.33141  0.69715  0.42607860733207686  1.0000
  N   N36       1.0  0.3604600000000001  0.70655  0.43066699071976133  1.0000
  H   H61       1.0  0.31475  0.7084000000000003  0.4309667343581528  1.0000
  H   H62       1.0  0.33347  0.8423000000000003  0.4160487240474397  1.0000
  C   C47       1.0  0.33141  0.8028500000000002  0.3519266426346219  1.0000
  N   N37       1.0  0.3604600000000001  0.7934500000000002  0.34733825924693734  1.0000
  H   H63       1.0  0.31475  0.7916  0.34703851560854587  1.0000
  H   H64       1.0  0.33347  0.6577  0.361956525919259  1.0000
  C   C48       1.0  0.33482  0.5804  0.3625329559930887  1.0000
  N   N38       1.0  0.34185000000000004  0.59035  0.3804253454847632  1.0000
  H   H65       1.0  0.30528  0.5586500000000002  0.4142041478111847  1.0000
  H   H66       1.0  0.34324000000000005  0.591  0.3522725006789198  1.0000
  N   N39       1.0  0.34185000000000004  0.9096500000000002  0.3975799044819356  1.0000
  N   N40       1.0  0.25485  0.5186  0.4090393343496703  1.0000
  C   C49       1.0  0.31419  0.6926000000000002  0.29808807373892626  1.0000
  N   N41       1.0  0.30674  0.7314000000000003  0.29375331958372675  1.0000
  H   H67       1.0  0.33047000000000004  0.8046500000000001  0.31628020686899216  1.0000
  H   H68       1.0  0.3062500000000001  0.67035  0.2929002030744588  1.0000
  C   C50       1.0  0.31419  0.8074  0.4799171762277725  1.0000
  N   N42       1.0  0.30674  0.7686  0.48425193038297204  1.0000
  H   H69       1.0  0.33047000000000004  0.69535  0.46172504309770657  1.0000
  H   H70       1.0  0.3062500000000001  0.82965  0.48510504689223993  1.0000
  Zn  Zn7       1.0  0.28079  0.7500000000000002  0.2737166102174058  1.0000
  Zn  Zn8       1.0  0.28079  0.5  0.3890026249833493  1.0000
  C   C51       1.0  0.32514  0.7518000000000002  0.30404605498203024  1.0000
  C   C52       1.0  0.32526  0.7953  0.30397227193258003  1.0000
  H   H71       1.0  0.3397200000000001  0.80545  0.29506758015205853  1.0000
  C   C53       1.0  0.32514  0.7482  0.47395919498466854  1.0000
  C   C54       1.0  0.32526  0.7047  0.4740329780341187  1.0000
  H   H72       1.0  0.3397200000000001  0.6945500000000002  0.4829376698146402  1.0000
  C   C55       1.0  0.32514  0.56577  0.3898326842896641  1.0000
  C   C56       1.0  0.32526  0.56561  0.40989245085893833  1.0000
  H   H73       1.0  0.3397200000000001  0.5463  0.41457306305843566  1.0000
  C   C57       1.0  0.37304  0.81577  0.4193320697479738  1.0000
  C   C58       1.0  0.34047  0.81561  0.4192582866985236  1.0000
  H   H74       1.0  0.33287  0.7963000000000002  0.4103535949180021  1.0000
  C   C59       1.0  0.37304  0.68423  0.3586731802187249  1.0000
  C   C60       1.0  0.34047  0.68439  0.3587469632681751  1.0000
  H   H75       1.0  0.33287  0.7037  0.36765165504869657  1.0000
  C   C61       1.0  0.41396  0.8074  0.3107925925661332  1.0000
  N   N43       1.0  0.40692  0.7686  0.3153809759538178  1.0000
  H   H76       1.0  0.4435  0.69535  0.3007627092814961  1.0000
  H   H77       1.0  0.40554000000000007  0.82965  0.3156807195922092  1.0000
  C   C62       1.0  0.41396  0.6926000000000002  0.46721265740056545  1.0000
  N   N44       1.0  0.40692  0.7314000000000003  0.4626242740128809  1.0000
  H   H78       1.0  0.4435  0.8046500000000001  0.47724254068520255  1.0000
  H   H79       1.0  0.40554000000000007  0.67035  0.4623245303744895  1.0000
  C   C63       1.0  0.43459  0.55285  0.41547229397361  1.0000
  N   N45       1.0  0.44204  0.54345  0.3975799044819356  1.0000
  H   H80       1.0  0.41831  0.5923  0.3638011021555141  1.0000
  H   H81       1.0  0.44253000000000003  0.5416  0.425732749287779  1.0000
  N   N46       1.0  0.49393  0.7934500000000002  0.4957113602507068  1.0000
  N   N47       1.0  0.49393  0.70655  0.28229388971599195  1.0000
  H   H82       1.0  0.41531000000000007  0.80865  0.346439028331763  1.0000
  C   C64       1.0  0.41737  0.8304  0.41337408850486984  1.0000
  N   N48       1.0  0.38832  0.8403500000000003  0.4090393343496703  1.0000
  H   H83       1.0  0.43403  0.8410000000000002  0.4081862178404024  1.0000
  H   H84       1.0  0.41531000000000007  0.69135  0.43156622163493574  1.0000
  C   C65       1.0  0.41737  0.6696000000000002  0.3646311614618289  1.0000
  N   N49       1.0  0.38832  0.65965  0.36896591561702835  1.0000
  H   H85       1.0  0.43403  0.659  0.36981903212629635  1.0000
  H   H86       1.0  0.41531000000000007  0.6577  0.4160487240474397  1.0000
  C   C66       1.0  0.41737  0.8028500000000002  0.42607860733207686  1.0000
  N   N50       1.0  0.38832  0.7934500000000002  0.43066699071976133  1.0000
  H   H87       1.0  0.43403  0.7916  0.4309667343581528  1.0000
  H   H88       1.0  0.41531000000000007  0.8423000000000003  0.361956525919259  1.0000
  C   C67       1.0  0.41737  0.69715  0.3519266426346219  1.0000
  N   N51       1.0  0.38832  0.70655  0.34733825924693734  1.0000
  H   H89       1.0  0.43403  0.7084000000000003  0.34703851560854587  1.0000
  C   C68       1.0  0.41396  0.5804  0.41547229397361  1.0000
  N   N52       1.0  0.40692  0.59035  0.3975799044819356  1.0000
  H   H90       1.0  0.4435  0.5586500000000002  0.3638011021555141  1.0000
  H   H91       1.0  0.40554000000000007  0.591  0.425732749287779  1.0000
  N   N53       1.0  0.40692  0.9096500000000002  0.3804253454847632  1.0000
  C   C69       1.0  0.43459  0.6926000000000002  0.4799171762277725  1.0000
  N   N54       1.0  0.44204  0.7314000000000003  0.48425193038297204  1.0000
  H   H92       1.0  0.41831  0.8046500000000001  0.46172504309770657  1.0000
  H   H93       1.0  0.44253000000000003  0.67035  0.48510504689223993  1.0000
  C   C70       1.0  0.43459  0.8074  0.29808807373892626  1.0000
  N   N55       1.0  0.44204  0.7686  0.29375331958372675  1.0000
  H   H94       1.0  0.41831  0.69535  0.31628020686899216  1.0000
  H   H95       1.0  0.44253000000000003  0.82965  0.2929002030744588  1.0000
  N   N56       1.0  0.49393  0.5186  0.36896591561702835  1.0000
  Zn  Zn9       1.0  0.4679900000000001  0.7500000000000002  0.2737166102174058  1.0000
  Zn  Zn10      1.0  0.37439  0.8750000000000002  0.3890026249833493  1.0000
  Zn  Zn11      1.0  0.37439  0.625  0.3890026249833493  1.0000
  Zn  Zn12      1.0  0.37439  0.7500000000000002  0.4466456323663212  1.0000
  Zn  Zn13      1.0  0.37439  0.7500000000000002  0.3313596176003776  1.0000
  Zn  Zn14      1.0  0.4679900000000001  0.5  0.3890026249833493  1.0000
  C   C71       1.0  0.42364  0.7482  0.30404605498203024  1.0000
  C   C72       1.0  0.42352  0.7047  0.30397227193258003  1.0000
  H   H96       1.0  0.40906  0.6945500000000002  0.29506758015205853  1.0000
  C   C73       1.0  0.42364  0.7518000000000002  0.47395919498466854  1.0000
  C   C74       1.0  0.42352  0.7953  0.4740329780341187  1.0000
  H   H97       1.0  0.40906  0.80545  0.4829376698146402  1.0000
  C   C75       1.0  0.42364  0.56577  0.38817256567703456  1.0000
  C   C76       1.0  0.42352  0.56561  0.3681127991077604  1.0000
  H   H98       1.0  0.40906  0.5463  0.36343218690826307  1.0000
  C   C77       1.0  0.37574  0.81577  0.3586731802187249  1.0000
  C   C78       1.0  0.40831  0.81561  0.3587469632681751  1.0000
  H   H99       1.0  0.41591  0.7963000000000002  0.36765165504869657  1.0000
  C   C79       1.0  0.37574  0.68423  0.4193320697479738  1.0000
  C   C80       1.0  0.40831  0.68439  0.4192582866985236  1.0000
  H   H100      1.0  0.41591  0.7037  0.4103535949180021  1.0000
  C   C81       1.0  0.33482  0.19260000000000005  0.5413646220980204  1.0000
  N   N57       1.0  0.34185000000000004  0.23140000000000005  0.545953005485705  1.0000
  H   H101      1.0  0.30528  0.3046500000000001  0.5313347388133833  1.0000
  H   H102      1.0  0.34324000000000005  0.17035000000000006  0.5462527491240964  1.0000
  C   C82       1.0  0.33482  0.30740000000000006  0.6977846869324527  1.0000
  N   N58       1.0  0.34185000000000004  0.26860000000000006  0.6931963035447681  1.0000
  H   H103      1.0  0.30528  0.19535000000000005  0.7078145702170898  1.0000
  H   H104      1.0  0.34324000000000005  0.3296500000000001  0.6928965599063768  1.0000
  N   N59       1.0  0.25485  0.20655  0.726283389782594  1.0000
  N   N60       1.0  0.25485  0.29345  0.5128659192478792  1.0000
  C   C83       1.0  0.31419  0.4471500000000001  0.6460443235054972  1.0000
  N   N61       1.0  0.30674  0.4565500000000001  0.6281519340138227  1.0000
  H   H105      1.0  0.33047000000000004  0.4077  0.5943731316874012  1.0000
  H   H106      1.0  0.3062500000000001  0.4584  0.6563047788196661  1.0000
  C   C84       1.0  0.33141  0.33040000000000014  0.5952031909937161  1.0000
  N   N62       1.0  0.3604600000000001  0.34035  0.5995379451489156  1.0000
  H   H107      1.0  0.31475  0.341  0.6003910616581836  1.0000
  H   H108      1.0  0.33347  0.30865  0.662138251166823  1.0000
  C   C85       1.0  0.33141  0.1696  0.643946118036757  1.0000
  N   N63       1.0  0.3604600000000001  0.15965  0.6396113638815576  1.0000
  H   H109      1.0  0.31475  0.159  0.6387582473722895  1.0000
  H   H110      1.0  0.33347  0.19135000000000005  0.5770110578636501  1.0000
  C   C86       1.0  0.33141  0.19715000000000005  0.656650636863964  1.0000
  N   N64       1.0  0.3604600000000001  0.20655  0.6612390202516486  1.0000
  H   H111      1.0  0.31475  0.2084  0.6615387638900401  1.0000
  H   H112      1.0  0.33347  0.3423  0.6466207535793269  1.0000
  C   C87       1.0  0.33141  0.30285  0.5824986721665091  1.0000
  N   N65       1.0  0.3604600000000001  0.29345  0.5779102887788244  1.0000
  H   H113      1.0  0.31475  0.29160000000000014  0.5776105451404331  1.0000
  H   H114      1.0  0.33347  0.15770000000000003  0.5925285554511462  1.0000
  N   N66       1.0  0.34185000000000004  0.09035  0.6109973750166504  1.0000
  C   C88       1.0  0.33482  0.4196  0.6460443235054972  1.0000
  N   N67       1.0  0.34185000000000004  0.4096500000000001  0.6281519340138227  1.0000
  H   H115      1.0  0.30528  0.44135  0.5943731316874012  1.0000
  H   H116      1.0  0.34324000000000005  0.4090000000000001  0.6563047788196661  1.0000
  N   N68       1.0  0.25485  0.48140000000000005  0.5995379451489156  1.0000
  C   C89       1.0  0.31419  0.19260000000000005  0.5286601032708135  1.0000
  N   N69       1.0  0.30674  0.23140000000000005  0.524325349115614  1.0000
  H   H117      1.0  0.33047000000000004  0.3046500000000001  0.5468522364008793  1.0000
  H   H118      1.0  0.3062500000000001  0.17035000000000006  0.523472232606346  1.0000
  C   C90       1.0  0.31419  0.30740000000000006  0.7104892057596597  1.0000
  N   N70       1.0  0.30674  0.26860000000000006  0.7148239599148591  1.0000
  H   H119      1.0  0.33047000000000004  0.19535000000000005  0.6922970726295938  1.0000
  H   H120      1.0  0.3062500000000001  0.3296500000000001  0.7156770764241271  1.0000
  Zn  Zn15      1.0  0.28079  0.25  0.5042886397492929  1.0000
  C   C91       1.0  0.32514  0.2518  0.5346180845139173  1.0000
  C   C92       1.0  0.32526  0.2953  0.5345443014644672  1.0000
  H   H121      1.0  0.3397200000000001  0.30545  0.5256396096839457  1.0000
  C   C93       1.0  0.32514  0.2482  0.7045312245165558  1.0000
  C   C94       1.0  0.32526  0.2047  0.704605007566006  1.0000
  H   H122      1.0  0.3397200000000001  0.19455  0.7135096993465273  1.0000
  C   C95       1.0  0.32514  0.43423  0.6187445952089218  1.0000
  C   C96       1.0  0.32526  0.43439  0.5986848286396476  1.0000
  H   H123      1.0  0.3397200000000001  0.4537000000000001  0.5940042164401503  1.0000
  C   C97       1.0  0.37304  0.31577  0.649904099279861  1.0000
  C   C98       1.0  0.34047  0.31561  0.6498303162304108  1.0000
  H   H124      1.0  0.33287  0.2963  0.6409256244498893  1.0000
  C   C99       1.0  0.37304  0.18423  0.5892452097506121  1.0000
  C   C100      1.0  0.34047  0.18439  0.5893189928000624  1.0000
  H   H125      1.0  0.33287  0.2037  0.5982236845805837  1.0000
  C   C101      1.0  0.41396  0.30740000000000006  0.5413646220980204  1.0000
  N   N71       1.0  0.40692  0.26860000000000006  0.545953005485705  1.0000
  H   H126      1.0  0.4435  0.19535000000000005  0.5313347388133833  1.0000
  H   H127      1.0  0.40554000000000007  0.3296500000000001  0.5462527491240964  1.0000
  C   C102      1.0  0.41396  0.19260000000000005  0.6977846869324527  1.0000
  N   N72       1.0  0.40692  0.23140000000000005  0.6931963035447681  1.0000
  H   H128      1.0  0.4435  0.3046500000000001  0.7078145702170898  1.0000
  H   H129      1.0  0.40554000000000007  0.17035000000000006  0.6928965599063768  1.0000
  C   C103      1.0  0.43459  0.4471500000000001  0.5931049855249759  1.0000
  N   N73       1.0  0.44204  0.4565500000000001  0.6109973750166504  1.0000
  H   H130      1.0  0.41831  0.4077  0.6447761773430719  1.0000
  H   H131      1.0  0.44253000000000003  0.4584  0.582844530210807  1.0000
  N   N74       1.0  0.49393  0.29345  0.726283389782594  1.0000
  N   N75       1.0  0.49393  0.20655  0.5128659192478792  1.0000
  H   H132      1.0  0.41531000000000007  0.30865  0.5770110578636501  1.0000
  C   C104      1.0  0.41737  0.33040000000000014  0.643946118036757  1.0000
  N   N76       1.0  0.38832  0.34035  0.6396113638815576  1.0000
  H   H133      1.0  0.43403  0.341  0.6387582473722895  1.0000
  H   H134      1.0  0.41531000000000007  0.19135000000000005  0.662138251166823  1.0000
  C   C105      1.0  0.41737  0.1696  0.5952031909937161  1.0000
  N   N77       1.0  0.38832  0.15965  0.5995379451489156  1.0000
  H   H135      1.0  0.43403  0.159  0.6003910616581836  1.0000
  H   H136      1.0  0.41531000000000007  0.15770000000000003  0.6466207535793269  1.0000
  C   C106      1.0  0.41737  0.30285  0.656650636863964  1.0000
  N   N78       1.0  0.38832  0.29345  0.6612390202516486  1.0000
  H   H137      1.0  0.43403  0.29160000000000014  0.6615387638900401  1.0000
  H   H138      1.0  0.41531000000000007  0.3423  0.5925285554511462  1.0000
  C   C107      1.0  0.41737  0.19715000000000005  0.5824986721665091  1.0000
  N   N79       1.0  0.38832  0.20655  0.5779102887788244  1.0000
  H   H139      1.0  0.43403  0.2084  0.5776105451404331  1.0000
  N   N80       1.0  0.40692  0.09035  0.6281519340138227  1.0000
  C   C108      1.0  0.41396  0.4196  0.5931049855249759  1.0000
  N   N81       1.0  0.40692  0.4096500000000001  0.6109973750166504  1.0000
  H   H140      1.0  0.4435  0.44135  0.6447761773430719  1.0000
  H   H141      1.0  0.40554000000000007  0.4090000000000001  0.582844530210807  1.0000
  C   C109      1.0  0.43459  0.19260000000000005  0.7104892057596597  1.0000
  N   N82       1.0  0.44204  0.23140000000000005  0.7148239599148591  1.0000
  H   H142      1.0  0.41831  0.3046500000000001  0.6922970726295938  1.0000
  H   H143      1.0  0.44253000000000003  0.17035000000000006  0.7156770764241271  1.0000
  C   C110      1.0  0.43459  0.30740000000000006  0.5286601032708135  1.0000
  N   N83       1.0  0.44204  0.26860000000000006  0.524325349115614  1.0000
  H   H144      1.0  0.41831  0.19535000000000005  0.5468522364008793  1.0000
  H   H145      1.0  0.44253000000000003  0.3296500000000001  0.523472232606346  1.0000
  N   N84       1.0  0.49393  0.48140000000000005  0.6396113638815576  1.0000
  Zn  Zn16      1.0  0.4679900000000001  0.25  0.5042886397492929  1.0000
  Zn  Zn17      1.0  0.37439  0.3750000000000001  0.6195746545152366  1.0000
  Zn  Zn18      1.0  0.37439  0.125  0.6195746545152366  1.0000
  Zn  Zn19      1.0  0.37439  0.25  0.6772176618982083  1.0000
  Zn  Zn20      1.0  0.37439  0.25  0.5619316471322647  1.0000
  C   C111      1.0  0.42364  0.2482  0.5346180845139173  1.0000
  C   C112      1.0  0.42352  0.2047  0.5345443014644672  1.0000
  H   H146      1.0  0.40906  0.19455  0.5256396096839457  1.0000
  C   C113      1.0  0.42364  0.2518  0.7045312245165558  1.0000
  C   C114      1.0  0.42352  0.2953  0.704605007566006  1.0000
  H   H147      1.0  0.40906  0.30545  0.7135096993465273  1.0000
  C   C115      1.0  0.42364  0.43423  0.6204047138215514  1.0000
  C   C116      1.0  0.42352  0.43439  0.6404644803908256  1.0000
  H   H148      1.0  0.40906  0.4537000000000001  0.6451450925903228  1.0000
  C   C117      1.0  0.37574  0.31577  0.5892452097506121  1.0000
  C   C118      1.0  0.40831  0.31561  0.5893189928000624  1.0000
  H   H149      1.0  0.41591  0.2963  0.5982236845805837  1.0000
  C   C119      1.0  0.37574  0.18423  0.649904099279861  1.0000
  C   C120      1.0  0.40831  0.18439  0.6498303162304108  1.0000
  H   H150      1.0  0.41591  0.2037  0.6409256244498893  1.0000
  C   C121      1.0  0.33482  0.6926000000000002  0.5413646220980204  1.0000
  N   N85       1.0  0.34185000000000004  0.7314000000000003  0.545953005485705  1.0000
  H   H151      1.0  0.30528  0.8046500000000001  0.5313347388133833  1.0000
  H   H152      1.0  0.34324000000000005  0.67035  0.5462527491240964  1.0000
  C   C122      1.0  0.33482  0.8074  0.6977846869324527  1.0000
  N   N86       1.0  0.34185000000000004  0.7686  0.6931963035447681  1.0000
  H   H153      1.0  0.30528  0.69535  0.7078145702170898  1.0000
  H   H154      1.0  0.34324000000000005  0.82965  0.6928965599063768  1.0000
  N   N87       1.0  0.25485  0.70655  0.726283389782594  1.0000
  N   N88       1.0  0.25485  0.7934500000000002  0.5128659192478792  1.0000
  C   C123      1.0  0.31419  0.55285  0.5931049855249759  1.0000
  N   N89       1.0  0.30674  0.54345  0.6109973750166504  1.0000
  H   H155      1.0  0.33047000000000004  0.5923  0.6447761773430719  1.0000
  H   H156      1.0  0.3062500000000001  0.5416  0.582844530210807  1.0000
  C   C124      1.0  0.33141  0.8304  0.5952031909937161  1.0000
  N   N90       1.0  0.3604600000000001  0.8403500000000003  0.5995379451489156  1.0000
  H   H157      1.0  0.31475  0.8410000000000002  0.6003910616581836  1.0000
  H   H158      1.0  0.33347  0.80865  0.662138251166823  1.0000
  C   C125      1.0  0.33141  0.6696000000000002  0.643946118036757  1.0000
  N   N91       1.0  0.3604600000000001  0.65965  0.6396113638815576  1.0000
  H   H159      1.0  0.31475  0.659  0.6387582473722895  1.0000
  H   H160      1.0  0.33347  0.69135  0.5770110578636501  1.0000
  C   C126      1.0  0.33141  0.69715  0.656650636863964  1.0000
  N   N92       1.0  0.3604600000000001  0.70655  0.6612390202516486  1.0000
  H   H161      1.0  0.31475  0.7084000000000003  0.6615387638900401  1.0000
  H   H162      1.0  0.33347  0.8423000000000003  0.6466207535793269  1.0000
  C   C127      1.0  0.33141  0.8028500000000002  0.5824986721665091  1.0000
  N   N93       1.0  0.3604600000000001  0.7934500000000002  0.5779102887788244  1.0000
  H   H163      1.0  0.31475  0.7916  0.5776105451404331  1.0000
  H   H164      1.0  0.33347  0.6577  0.5925285554511462  1.0000
  C   C128      1.0  0.33482  0.5804  0.5931049855249759  1.0000
  N   N94       1.0  0.34185000000000004  0.59035  0.6109973750166504  1.0000
  H   H165      1.0  0.30528  0.5586500000000002  0.6447761773430719  1.0000
  H   H166      1.0  0.34324000000000005  0.591  0.582844530210807  1.0000
  N   N95       1.0  0.34185000000000004  0.9096500000000002  0.6281519340138227  1.0000
  N   N96       1.0  0.25485  0.5186  0.6396113638815576  1.0000
  C   C129      1.0  0.31419  0.6926000000000002  0.5286601032708135  1.0000
  N   N97       1.0  0.30674  0.7314000000000003  0.524325349115614  1.0000
  H   H167      1.0  0.33047000000000004  0.8046500000000001  0.5468522364008793  1.0000
  H   H168      1.0  0.3062500000000001  0.67035  0.523472232606346  1.0000
  C   C130      1.0  0.31419  0.8074  0.7104892057596597  1.0000
  N   N98       1.0  0.30674  0.7686  0.7148239599148591  1.0000
  H   H169      1.0  0.33047000000000004  0.69535  0.6922970726295938  1.0000
  H   H170      1.0  0.3062500000000001  0.82965  0.7156770764241271  1.0000
  Zn  Zn21      1.0  0.28079  0.7500000000000002  0.5042886397492929  1.0000
  Zn  Zn22      1.0  0.28079  0.5  0.6195746545152366  1.0000
  C   C131      1.0  0.32514  0.7518000000000002  0.5346180845139173  1.0000
  C   C132      1.0  0.32526  0.7953  0.5345443014644672  1.0000
  H   H171      1.0  0.3397200000000001  0.80545  0.5256396096839457  1.0000
  C   C133      1.0  0.32514  0.7482  0.7045312245165558  1.0000
  C   C134      1.0  0.32526  0.7047  0.704605007566006  1.0000
  H   H172      1.0  0.3397200000000001  0.6945500000000002  0.7135096993465273  1.0000
  C   C135      1.0  0.32514  0.56577  0.6204047138215514  1.0000
  C   C136      1.0  0.32526  0.56561  0.6404644803908256  1.0000
  H   H173      1.0  0.3397200000000001  0.5463  0.6451450925903228  1.0000
  C   C137      1.0  0.37304  0.81577  0.649904099279861  1.0000
  C   C138      1.0  0.34047  0.81561  0.6498303162304108  1.0000
  H   H174      1.0  0.33287  0.7963000000000002  0.6409256244498893  1.0000
  C   C139      1.0  0.37304  0.68423  0.5892452097506121  1.0000
  C   C140      1.0  0.34047  0.68439  0.5893189928000624  1.0000
  H   H175      1.0  0.33287  0.7037  0.5982236845805837  1.0000
  C   C141      1.0  0.41396  0.8074  0.5413646220980204  1.0000
  N   N99       1.0  0.40692  0.7686  0.545953005485705  1.0000
  H   H176      1.0  0.4435  0.69535  0.5313347388133833  1.0000
  H   H177      1.0  0.40554000000000007  0.82965  0.5462527491240964  1.0000
  C   C142      1.0  0.41396  0.6926000000000002  0.6977846869324527  1.0000
  N   N100      1.0  0.40692  0.7314000000000003  0.6931963035447681  1.0000
  H   H178      1.0  0.4435  0.8046500000000001  0.7078145702170898  1.0000
  H   H179      1.0  0.40554000000000007  0.67035  0.6928965599063768  1.0000
  C   C143      1.0  0.43459  0.55285  0.6460443235054972  1.0000
  N   N101      1.0  0.44204  0.54345  0.6281519340138227  1.0000
  H   H180      1.0  0.41831  0.5923  0.5943731316874012  1.0000
  H   H181      1.0  0.44253000000000003  0.5416  0.6563047788196661  1.0000
  N   N102      1.0  0.49393  0.7934500000000002  0.726283389782594  1.0000
  N   N103      1.0  0.49393  0.70655  0.5128659192478792  1.0000
  H   H182      1.0  0.41531000000000007  0.80865  0.5770110578636501  1.0000
  C   C144      1.0  0.41737  0.8304  0.643946118036757  1.0000
  N   N104      1.0  0.38832  0.8403500000000003  0.6396113638815576  1.0000
  H   H183      1.0  0.43403  0.8410000000000002  0.6387582473722895  1.0000
  H   H184      1.0  0.41531000000000007  0.69135  0.662138251166823  1.0000
  C   C145      1.0  0.41737  0.6696000000000002  0.5952031909937161  1.0000
  N   N105      1.0  0.38832  0.65965  0.5995379451489156  1.0000
  H   H185      1.0  0.43403  0.659  0.6003910616581836  1.0000
  H   H186      1.0  0.41531000000000007  0.6577  0.6466207535793269  1.0000
  C   C146      1.0  0.41737  0.8028500000000002  0.656650636863964  1.0000
  N   N106      1.0  0.38832  0.7934500000000002  0.6612390202516486  1.0000
  H   H187      1.0  0.43403  0.7916  0.6615387638900401  1.0000
  H   H188      1.0  0.41531000000000007  0.8423000000000003  0.5925285554511462  1.0000
  C   C147      1.0  0.41737  0.69715  0.5824986721665091  1.0000
  N   N107      1.0  0.38832  0.70655  0.5779102887788244  1.0000
  H   H189      1.0  0.43403  0.7084000000000003  0.5776105451404331  1.0000
  C   C148      1.0  0.41396  0.5804  0.6460443235054972  1.0000
  N   N108      1.0  0.40692  0.59035  0.6281519340138227  1.0000
  H   H190      1.0  0.4435  0.5586500000000002  0.5943731316874012  1.0000
  H   H191      1.0  0.40554000000000007  0.591  0.6563047788196661  1.0000
  N   N109      1.0  0.40692  0.9096500000000002  0.6109973750166504  1.0000
  C   C149      1.0  0.43459  0.6926000000000002  0.7104892057596597  1.0000
  N   N110      1.0  0.44204  0.7314000000000003  0.7148239599148591  1.0000
  H   H192      1.0  0.41831  0.8046500000000001  0.6922970726295938  1.0000
  H   H193      1.0  0.44253000000000003  0.67035  0.7156770764241271  1.0000
  C   C150      1.0  0.43459  0.8074  0.5286601032708135  1.0000
  N   N111      1.0  0.44204  0.7686  0.524325349115614  1.0000
  H   H194      1.0  0.41831  0.69535  0.5468522364008793  1.0000
  H   H195      1.0  0.44253000000000003  0.82965  0.523472232606346  1.0000
  N   N112      1.0  0.49393  0.5186  0.5995379451489156  1.0000
  Zn  Zn23      1.0  0.4679900000000001  0.7500000000000002  0.5042886397492929  1.0000
  Zn  Zn24      1.0  0.37439  0.8750000000000002  0.6195746545152366  1.0000
  Zn  Zn25      1.0  0.37439  0.625  0.6195746545152366  1.0000
  Zn  Zn26      1.0  0.37439  0.7500000000000002  0.6772176618982083  1.0000
  Zn  Zn27      1.0  0.37439  0.7500000000000002  0.5619316471322647  1.0000
  Zn  Zn28      1.0  0.4679900000000001  0.5  0.6195746545152366  1.0000
  C   C151      1.0  0.42364  0.7482  0.5346180845139173  1.0000
  C   C152      1.0  0.42352  0.7047  0.5345443014644672  1.0000
  H   H196      1.0  0.40906  0.6945500000000002  0.5256396096839457  1.0000
  C   C153      1.0  0.42364  0.7518000000000002  0.7045312245165558  1.0000
  C   C154      1.0  0.42352  0.7953  0.704605007566006  1.0000
  H   H197      1.0  0.40906  0.80545  0.7135096993465273  1.0000
  C   C155      1.0  0.42364  0.56577  0.6187445952089218  1.0000
  C   C156      1.0  0.42352  0.56561  0.5986848286396476  1.0000
  H   H198      1.0  0.40906  0.5463  0.5940042164401503  1.0000
  C   C157      1.0  0.37574  0.81577  0.5892452097506121  1.0000
  C   C158      1.0  0.40831  0.81561  0.5893189928000624  1.0000
  H   H199      1.0  0.41591  0.7963000000000002  0.5982236845805837  1.0000
  C   C159      1.0  0.37574  0.68423  0.649904099279861  1.0000
  C   C160      1.0  0.40831  0.68439  0.6498303162304108  1.0000
  H   H200      1.0  0.41591  0.7037  0.6409256244498893  1.0000
  O   O1        1.0  0.26727651010540465  0.7001188151621742  0.742222875289937  1.0000
  O   O2        1.0  0.3531358963850594  0.7242466233878012  0.7373255842694764  1.0000
  U   U1        1.0  0.31020689021435466  0.7121849287388702  0.7397744715154401  1.0000
