data_image0
_chemical_formula_structural       CNH2CNH2N2CNH2CNH2CNH2CNH2CNH2NCNH2NCNH2CNH2ZnC2HC2HC2HC2HC2HCNH2CNH2CNH2N2HCNH2CNH2CNH2CNHNCNH2CNH2CNH2NZn5C2HC2HC2HC2HC2HCNH2CNH2N2CNH2CNH2CNH2CNH2CNH2CNH2N2CNH2CNH2Zn2C2HC2HC2HC2HC2HCNH2CNH2CNH2N2HCNH2CNH2CNH2CNHCNH2NCNH2CNH2NZn6C2HC2HC2HC2HC2HCNH2CNH2N2CNH2CNH2CNH2CNH2CNH2NCNH2NCNH2CNH2ZnC2HC2HC2HC2HC2HCNH2CNH2CNH2N2HCNH2CNH2CNH2CNHNCNH2CNH2CNH2NZn5C2HC2HC2HC2HC2HCNH2CNH2N2CNH2CNH2CNH2CNH2CNH2CNH2N2CNH2CNH2Zn2C2HC2HC2HC2HC2HCNH2CNH2CNH2N2HCNH2CNH2CNH2CNHCNH2NCNH2CNH2NZn6C2HC2HC2HC2HC2HO2U
_chemical_formula_sum              "C160 N112 H200 Zn28 O2 U1"
_cell_length_a       50.758599999999994
_cell_length_b       33.695
_cell_length_c       33.695
_cell_angle_alpha    90.0
_cell_angle_beta     90.0
_cell_angle_gamma    90.0

_space_group_name_H-M_alt    "P 1"
_space_group_IT_number       1

loop_
  _space_group_symop_operation_xyz
  'x, y, z'

loop_
  _atom_site_type_symbol
  _atom_site_label
  _atom_site_symmetry_multiplicity
  _atom_site_fract_x
  _atom_site_fract_y
  _atom_site_fract_z
  _atom_site_occupancy
  C   C1        1.0  0.4649192452116489  0.19260000000000005  0.0804  1.0000
  N   N1        1.0  0.4711516866107419  0.23140000000000005  0.09035  1.0000
  H   H1        1.0  0.4387305796456168  0.3046500000000001  0.05865  1.0000
  H   H2        1.0  0.4723839901021699  0.17035000000000006  0.091  1.0000
  C   C2        1.0  0.4649192452116489  0.30740000000000006  0.4196  1.0000
  N   N2        1.0  0.4711516866107419  0.26860000000000006  0.4096500000000001  1.0000
  H   H3        1.0  0.4387305796456168  0.19535000000000005  0.44135  1.0000
  H   H4        1.0  0.4723839901021699  0.3296500000000001  0.4090000000000001  1.0000
  N   N3        1.0  0.39402189973718743  0.20655  0.48140000000000005  1.0000
  N   N4        1.0  0.39402189973718743  0.29345  0.0186  1.0000
  C   C3        1.0  0.446629733680598  0.4471500000000001  0.30740000000000006  1.0000
  N   N5        1.0  0.44002494158625344  0.4565500000000001  0.26860000000000006  1.0000
  H   H5        1.0  0.46106275586797124  0.4077  0.19535000000000005  1.0000
  H   H6        1.0  0.4395905324417932  0.4584  0.3296500000000001  1.0000
  C   C4        1.0  0.4618961121859153  0.33040000000000014  0.19715000000000005  1.0000
  N   N6        1.0  0.4876503686074873  0.34035  0.20655  1.0000
  H   H7        1.0  0.44712620127426683  0.341  0.2084  1.0000
  H   H8        1.0  0.4637224036911972  0.30865  0.3423  1.0000
  C   C5        1.0  0.4618961121859153  0.1696  0.30285  1.0000
  N   N7        1.0  0.4876503686074873  0.15965  0.29345  1.0000
  H   H9        1.0  0.44712620127426683  0.159  0.29160000000000014  1.0000
  H   H10       1.0  0.4637224036911972  0.19135000000000005  0.15770000000000003  1.0000
  C   C6        1.0  0.4618961121859153  0.19715000000000005  0.33040000000000014  1.0000
  N   N8        1.0  0.4876503686074873  0.20655  0.34035  1.0000
  H   H11       1.0  0.44712620127426683  0.2084  0.341  1.0000
  H   H12       1.0  0.4637224036911972  0.3423  0.30865  1.0000
  C   C7        1.0  0.4618961121859153  0.30285  0.1696  1.0000
  N   N9        1.0  0.4876503686074873  0.29345  0.15965  1.0000
  H   H13       1.0  0.44712620127426683  0.29160000000000014  0.159  1.0000
  H   H14       1.0  0.4637224036911972  0.15770000000000003  0.19135000000000005  1.0000
  N   N10       1.0  0.4711516866107419  0.09035  0.23140000000000005  1.0000
  C   C8        1.0  0.4649192452116489  0.4196  0.30740000000000006  1.0000
  N   N11       1.0  0.4711516866107419  0.4096500000000001  0.26860000000000006  1.0000
  H   H15       1.0  0.4387305796456168  0.44135  0.19535000000000005  1.0000
  H   H16       1.0  0.4723839901021699  0.4090000000000001  0.3296500000000001  1.0000
  N   N12       1.0  0.39402189973718743  0.48140000000000005  0.20655  1.0000
  C   C9        1.0  0.446629733680598  0.19260000000000005  0.052850000000000015  1.0000
  N   N13       1.0  0.44002494158625344  0.23140000000000005  0.043450000000000016  1.0000
  H   H17       1.0  0.46106275586797124  0.3046500000000001  0.09230000000000002  1.0000
  H   H18       1.0  0.4395905324417932  0.17035000000000006  0.0416  1.0000
  C   C10       1.0  0.446629733680598  0.30740000000000006  0.4471500000000001  1.0000
  N   N14       1.0  0.44002494158625344  0.26860000000000006  0.4565500000000001  1.0000
  H   H19       1.0  0.46106275586797124  0.19535000000000005  0.4077  1.0000
  H   H20       1.0  0.4395905324417932  0.3296500000000001  0.4584  1.0000
  Zn  Zn1       1.0  0.4170189879153483  0.25  0.0  1.0000
  C   C11       1.0  0.4563374482353729  0.2518  0.06577000000000002  1.0000
  C   C12       1.0  0.456443834148302  0.2953  0.06561  1.0000
  H   H21       1.0  0.4692633366562515  0.30545  0.046300000000000015  1.0000
  C   C13       1.0  0.4563374482353729  0.2482  0.43423  1.0000
  C   C14       1.0  0.456443834148302  0.2047  0.43439  1.0000
  H   H22       1.0  0.4692633366562515  0.19455  0.4537000000000001  1.0000
  C   C15       1.0  0.4563374482353729  0.43423  0.2482  1.0000
  C   C16       1.0  0.456443834148302  0.43439  0.2047  1.0000
  H   H23       1.0  0.4692633366562515  0.4537000000000001  0.19455  1.0000
  C   C17       1.0  0.49880315847954837  0.31577  0.31577  1.0000
  C   C18       1.0  0.46992824861205784  0.31561  0.31561  1.0000
  H   H24       1.0  0.46319047412655195  0.2963  0.2963  1.0000
  C   C19       1.0  0.49880315847954837  0.18423  0.18423  1.0000
  C   C20       1.0  0.46992824861205784  0.18439  0.18439  1.0000
  H   H25       1.0  0.46319047412655195  0.2037  0.2037  1.0000
  C   C21       1.0  0.5350807547883513  0.30740000000000006  0.0804  1.0000
  N   N15       1.0  0.5288394478965142  0.26860000000000006  0.09035  1.0000
  H   H26       1.0  0.5612694203543833  0.19535000000000005  0.05865  1.0000
  H   H27       1.0  0.5276160098978302  0.3296500000000001  0.091  1.0000
  C   C22       1.0  0.5350807547883513  0.19260000000000005  0.4196  1.0000
  N   N16       1.0  0.5288394478965142  0.23140000000000005  0.4096500000000001  1.0000
  H   H28       1.0  0.5612694203543833  0.3046500000000001  0.44135  1.0000
  H   H29       1.0  0.5276160098978302  0.17035000000000006  0.4090000000000001  1.0000
  C   C23       1.0  0.553370266319402  0.4471500000000001  0.19260000000000005  1.0000
  N   N17       1.0  0.5599750584137466  0.4565500000000001  0.23140000000000005  1.0000
  H   H30       1.0  0.5389372441320288  0.4077  0.3046500000000001  1.0000
  H   H31       1.0  0.5604094675582069  0.4584  0.17035000000000006  1.0000
  N   N18       1.0  0.6059781002628126  0.29345  0.48140000000000005  1.0000
  N   N19       1.0  0.6059781002628126  0.20655  0.0186  1.0000
  H   H32       1.0  0.5362775963088029  0.30865  0.15770000000000003  1.0000
  C   C24       1.0  0.5381038878140848  0.33040000000000014  0.30285  1.0000
  N   N20       1.0  0.5123496313925128  0.34035  0.29345  1.0000
  H   H33       1.0  0.5528737987257332  0.341  0.29160000000000014  1.0000
  H   H34       1.0  0.5362775963088029  0.19135000000000005  0.3423  1.0000
  C   C25       1.0  0.5381038878140848  0.1696  0.19715000000000005  1.0000
  N   N21       1.0  0.5123496313925128  0.15965  0.20655  1.0000
  H   H35       1.0  0.5528737987257332  0.159  0.2084  1.0000
  H   H36       1.0  0.5362775963088029  0.15770000000000003  0.30865  1.0000
  C   C26       1.0  0.5381038878140848  0.30285  0.33040000000000014  1.0000
  N   N22       1.0  0.5123496313925128  0.29345  0.34035  1.0000
  H   H37       1.0  0.5528737987257332  0.29160000000000014  0.341  1.0000
  H   H38       1.0  0.5362775963088029  0.3423  0.19135000000000005  1.0000
  C   C27       1.0  0.5381038878140848  0.19715000000000005  0.1696  1.0000
  N   N23       1.0  0.5123496313925128  0.20655  0.15965  1.0000
  H   H39       1.0  0.5528737987257332  0.2084  0.159  1.0000
  N   N24       1.0  0.5288394478965142  0.09035  0.26860000000000006  1.0000
  C   C28       1.0  0.5350807547883513  0.4196  0.19260000000000005  1.0000
  N   N25       1.0  0.5288394478965142  0.4096500000000001  0.23140000000000005  1.0000
  H   H40       1.0  0.5612694203543833  0.44135  0.3046500000000001  1.0000
  H   H41       1.0  0.5276160098978302  0.4090000000000001  0.17035000000000006  1.0000
  C   C29       1.0  0.553370266319402  0.19260000000000005  0.4471500000000001  1.0000
  N   N26       1.0  0.5599750584137466  0.23140000000000005  0.4565500000000001  1.0000
  H   H42       1.0  0.5389372441320288  0.3046500000000001  0.4077  1.0000
  H   H43       1.0  0.5604094675582069  0.17035000000000006  0.4584  1.0000
  C   C30       1.0  0.553370266319402  0.30740000000000006  0.052850000000000015  1.0000
  N   N27       1.0  0.5599750584137466  0.26860000000000006  0.043450000000000016  1.0000
  H   H44       1.0  0.5389372441320288  0.19535000000000005  0.09230000000000002  1.0000
  H   H45       1.0  0.5604094675582069  0.3296500000000001  0.0416  1.0000
  N   N28       1.0  0.6059781002628126  0.48140000000000005  0.29345  1.0000
  Zn  Zn2       1.0  0.5829810120846518  0.25  0.0  1.0000
  Zn  Zn3       1.0  0.5  0.3750000000000001  0.25  1.0000
  Zn  Zn4       1.0  0.5  0.125  0.25  1.0000
  Zn  Zn5       1.0  0.5  0.25  0.3750000000000001  1.0000
  Zn  Zn6       1.0  0.5  0.25  0.125  1.0000
  C   C31       1.0  0.5436625517646272  0.2482  0.06577000000000002  1.0000
  C   C32       1.0  0.5435561658516981  0.2047  0.06561  1.0000
  H   H46       1.0  0.5307366633437487  0.19455  0.046300000000000015  1.0000
  C   C33       1.0  0.5436625517646272  0.2518  0.43423  1.0000
  C   C34       1.0  0.5435561658516981  0.2953  0.43439  1.0000
  H   H47       1.0  0.5307366633437487  0.30545  0.4537000000000001  1.0000
  C   C35       1.0  0.5436625517646272  0.43423  0.2518  1.0000
  C   C36       1.0  0.5435561658516981  0.43439  0.2953  1.0000
  H   H48       1.0  0.5307366633437487  0.4537000000000001  0.30545  1.0000
  C   C37       1.0  0.5011968415204517  0.31577  0.18423  1.0000
  C   C38       1.0  0.5300717513879423  0.31561  0.18439  1.0000
  H   H49       1.0  0.5368095258734481  0.2963  0.2037  1.0000
  C   C39       1.0  0.5011968415204517  0.18423  0.31577  1.0000
  C   C40       1.0  0.5300717513879423  0.18439  0.31561  1.0000
  H   H50       1.0  0.5368095258734481  0.2037  0.2963  1.0000
  C   C41       1.0  0.4649192452116489  0.6926000000000002  0.0804  1.0000
  N   N29       1.0  0.4711516866107419  0.7314000000000003  0.09035  1.0000
  H   H51       1.0  0.4387305796456168  0.8046500000000001  0.05865  1.0000
  H   H52       1.0  0.4723839901021699  0.67035  0.091  1.0000
  C   C42       1.0  0.4649192452116489  0.8074  0.4196  1.0000
  N   N30       1.0  0.4711516866107419  0.7686  0.4096500000000001  1.0000
  H   H53       1.0  0.4387305796456168  0.69535  0.44135  1.0000
  H   H54       1.0  0.4723839901021699  0.82965  0.4090000000000001  1.0000
  N   N31       1.0  0.39402189973718743  0.70655  0.48140000000000005  1.0000
  N   N32       1.0  0.39402189973718743  0.7934500000000002  0.0186  1.0000
  C   C43       1.0  0.446629733680598  0.55285  0.19260000000000005  1.0000
  N   N33       1.0  0.44002494158625344  0.54345  0.23140000000000005  1.0000
  H   H55       1.0  0.46106275586797124  0.5923  0.3046500000000001  1.0000
  H   H56       1.0  0.4395905324417932  0.5416  0.17035000000000006  1.0000
  C   C44       1.0  0.4618961121859153  0.8304  0.19715000000000005  1.0000
  N   N34       1.0  0.4876503686074873  0.8403500000000003  0.20655  1.0000
  H   H57       1.0  0.44712620127426683  0.8410000000000002  0.2084  1.0000
  H   H58       1.0  0.4637224036911972  0.80865  0.3423  1.0000
  C   C45       1.0  0.4618961121859153  0.6696000000000002  0.30285  1.0000
  N   N35       1.0  0.4876503686074873  0.65965  0.29345  1.0000
  H   H59       1.0  0.44712620127426683  0.659  0.29160000000000014  1.0000
  H   H60       1.0  0.4637224036911972  0.69135  0.15770000000000003  1.0000
  C   C46       1.0  0.4618961121859153  0.69715  0.33040000000000014  1.0000
  N   N36       1.0  0.4876503686074873  0.70655  0.34035  1.0000
  H   H61       1.0  0.44712620127426683  0.7084000000000003  0.341  1.0000
  H   H62       1.0  0.4637224036911972  0.8423000000000003  0.30865  1.0000
  C   C47       1.0  0.4618961121859153  0.8028500000000002  0.1696  1.0000
  N   N37       1.0  0.4876503686074873  0.7934500000000002  0.15965  1.0000
  H   H63       1.0  0.44712620127426683  0.7916  0.159  1.0000
  H   H64       1.0  0.4637224036911972  0.6577  0.19135000000000005  1.0000
  C   C48       1.0  0.4649192452116489  0.5804  0.19260000000000005  1.0000
  N   N38       1.0  0.4711516866107419  0.59035  0.23140000000000005  1.0000
  H   H65       1.0  0.4387305796456168  0.5586500000000002  0.3046500000000001  1.0000
  H   H66       1.0  0.4723839901021699  0.591  0.17035000000000006  1.0000
  N   N39       1.0  0.4711516866107419  0.9096500000000002  0.26860000000000006  1.0000
  N   N40       1.0  0.39402189973718743  0.5186  0.29345  1.0000
  C   C49       1.0  0.446629733680598  0.6926000000000002  0.052850000000000015  1.0000
  N   N41       1.0  0.44002494158625344  0.7314000000000003  0.043450000000000016  1.0000
  H   H67       1.0  0.46106275586797124  0.8046500000000001  0.09230000000000002  1.0000
  H   H68       1.0  0.4395905324417932  0.67035  0.0416  1.0000
  C   C50       1.0  0.446629733680598  0.8074  0.4471500000000001  1.0000
  N   N42       1.0  0.44002494158625344  0.7686  0.4565500000000001  1.0000
  H   H69       1.0  0.46106275586797124  0.69535  0.4077  1.0000
  H   H70       1.0  0.4395905324417932  0.82965  0.4584  1.0000
  Zn  Zn7       1.0  0.4170189879153483  0.7500000000000002  0.0  1.0000
  Zn  Zn8       1.0  0.4170189879153483  0.5  0.25  1.0000
  C   C51       1.0  0.4563374482353729  0.7518000000000002  0.06577000000000002  1.0000
  C   C52       1.0  0.456443834148302  0.7953  0.06561  1.0000
  H   H71       1.0  0.4692633366562515  0.80545  0.046300000000000015  1.0000
  C   C53       1.0  0.4563374482353729  0.7482  0.43423  1.0000
  C   C54       1.0  0.456443834148302  0.7047  0.43439  1.0000
  H   H72       1.0  0.4692633366562515  0.6945500000000002  0.4537000000000001  1.0000
  C   C55       1.0  0.4563374482353729  0.56577  0.2518  1.0000
  C   C56       1.0  0.456443834148302  0.56561  0.2953  1.0000
  H   H73       1.0  0.4692633366562515  0.5463  0.30545  1.0000
  C   C57       1.0  0.49880315847954837  0.81577  0.31577  1.0000
  C   C58       1.0  0.46992824861205784  0.81561  0.31561  1.0000
  H   H74       1.0  0.46319047412655195  0.7963000000000002  0.2963  1.0000
  C   C59       1.0  0.49880315847954837  0.68423  0.18423  1.0000
  C   C60       1.0  0.46992824861205784  0.68439  0.18439  1.0000
  H   H75       1.0  0.46319047412655195  0.7037  0.2037  1.0000
  C   C61       1.0  0.5350807547883513  0.8074  0.0804  1.0000
  N   N43       1.0  0.5288394478965142  0.7686  0.09035  1.0000
  H   H76       1.0  0.5612694203543833  0.69535  0.05865  1.0000
  H   H77       1.0  0.5276160098978302  0.82965  0.091  1.0000
  C   C62       1.0  0.5350807547883513  0.6926000000000002  0.4196  1.0000
  N   N44       1.0  0.5288394478965142  0.7314000000000003  0.4096500000000001  1.0000
  H   H78       1.0  0.5612694203543833  0.8046500000000001  0.44135  1.0000
  H   H79       1.0  0.5276160098978302  0.67035  0.4090000000000001  1.0000
  C   C63       1.0  0.553370266319402  0.55285  0.30740000000000006  1.0000
  N   N45       1.0  0.5599750584137466  0.54345  0.26860000000000006  1.0000
  H   H80       1.0  0.5389372441320288  0.5923  0.19535000000000005  1.0000
  H   H81       1.0  0.5604094675582069  0.5416  0.3296500000000001  1.0000
  N   N46       1.0  0.6059781002628126  0.7934500000000002  0.48140000000000005  1.0000
  N   N47       1.0  0.6059781002628126  0.70655  0.0186  1.0000
  H   H82       1.0  0.5362775963088029  0.80865  0.15770000000000003  1.0000
  C   C64       1.0  0.5381038878140848  0.8304  0.30285  1.0000
  N   N48       1.0  0.5123496313925128  0.8403500000000003  0.29345  1.0000
  H   H83       1.0  0.5528737987257332  0.8410000000000002  0.29160000000000014  1.0000
  H   H84       1.0  0.5362775963088029  0.69135  0.3423  1.0000
  C   C65       1.0  0.5381038878140848  0.6696000000000002  0.19715000000000005  1.0000
  N   N49       1.0  0.5123496313925128  0.65965  0.20655  1.0000
  H   H85       1.0  0.5528737987257332  0.659  0.2084  1.0000
  H   H86       1.0  0.5362775963088029  0.6577  0.30865  1.0000
  C   C66       1.0  0.5381038878140848  0.8028500000000002  0.33040000000000014  1.0000
  N   N50       1.0  0.5123496313925128  0.7934500000000002  0.34035  1.0000
  H   H87       1.0  0.5528737987257332  0.7916  0.341  1.0000
  H   H88       1.0  0.5362775963088029  0.8423000000000003  0.19135000000000005  1.0000
  C   C67       1.0  0.5381038878140848  0.69715  0.1696  1.0000
  N   N51       1.0  0.5123496313925128  0.70655  0.15965  1.0000
  H   H89       1.0  0.5528737987257332  0.7084000000000003  0.159  1.0000
  C   C68       1.0  0.5350807547883513  0.5804  0.30740000000000006  1.0000
  N   N52       1.0  0.5288394478965142  0.59035  0.26860000000000006  1.0000
  H   H90       1.0  0.5612694203543833  0.5586500000000002  0.19535000000000005  1.0000
  H   H91       1.0  0.5276160098978302  0.591  0.3296500000000001  1.0000
  N   N53       1.0  0.5288394478965142  0.9096500000000002  0.23140000000000005  1.0000
  C   C69       1.0  0.553370266319402  0.6926000000000002  0.4471500000000001  1.0000
  N   N54       1.0  0.5599750584137466  0.7314000000000003  0.4565500000000001  1.0000
  H   H92       1.0  0.5389372441320288  0.8046500000000001  0.4077  1.0000
  H   H93       1.0  0.5604094675582069  0.67035  0.4584  1.0000
  C   C70       1.0  0.553370266319402  0.8074  0.052850000000000015  1.0000
  N   N55       1.0  0.5599750584137466  0.7686  0.043450000000000016  1.0000
  H   H94       1.0  0.5389372441320288  0.69535  0.09230000000000002  1.0000
  H   H95       1.0  0.5604094675582069  0.82965  0.0416  1.0000
  N   N56       1.0  0.6059781002628126  0.5186  0.20655  1.0000
  Zn  Zn9       1.0  0.5829810120846518  0.7500000000000002  0.0  1.0000
  Zn  Zn10      1.0  0.5  0.8750000000000002  0.25  1.0000
  Zn  Zn11      1.0  0.5  0.625  0.25  1.0000
  Zn  Zn12      1.0  0.5  0.7500000000000002  0.3750000000000001  1.0000
  Zn  Zn13      1.0  0.5  0.7500000000000002  0.125  1.0000
  Zn  Zn14      1.0  0.5829810120846518  0.5  0.25  1.0000
  C   C71       1.0  0.5436625517646272  0.7482  0.06577000000000002  1.0000
  C   C72       1.0  0.5435561658516981  0.7047  0.06561  1.0000
  H   H96       1.0  0.5307366633437487  0.6945500000000002  0.046300000000000015  1.0000
  C   C73       1.0  0.5436625517646272  0.7518000000000002  0.43423  1.0000
  C   C74       1.0  0.5435561658516981  0.7953  0.43439  1.0000
  H   H97       1.0  0.5307366633437487  0.80545  0.4537000000000001  1.0000
  C   C75       1.0  0.5436625517646272  0.56577  0.2482  1.0000
  C   C76       1.0  0.5435561658516981  0.56561  0.2047  1.0000
  H   H98       1.0  0.5307366633437487  0.5463  0.19455  1.0000
  C   C77       1.0  0.5011968415204517  0.81577  0.18423  1.0000
  C   C78       1.0  0.5300717513879423  0.81561  0.18439  1.0000
  H   H99       1.0  0.5368095258734481  0.7963000000000002  0.2037  1.0000
  C   C79       1.0  0.5011968415204517  0.68423  0.31577  1.0000
  C   C80       1.0  0.5300717513879423  0.68439  0.31561  1.0000
  H   H100      1.0  0.5368095258734481  0.7037  0.2963  1.0000
  C   C81       1.0  0.4649192452116489  0.19260000000000005  0.5804  1.0000
  N   N57       1.0  0.4711516866107419  0.23140000000000005  0.59035  1.0000
  H   H101      1.0  0.4387305796456168  0.3046500000000001  0.5586500000000002  1.0000
  H   H102      1.0  0.4723839901021699  0.17035000000000006  0.591  1.0000
  C   C82       1.0  0.4649192452116489  0.30740000000000006  0.9196  1.0000
  N   N58       1.0  0.4711516866107419  0.26860000000000006  0.9096500000000002  1.0000
  H   H103      1.0  0.4387305796456168  0.19535000000000005  0.94135  1.0000
  H   H104      1.0  0.4723839901021699  0.3296500000000001  0.9090000000000001  1.0000
  N   N59       1.0  0.39402189973718743  0.20655  0.9814000000000002  1.0000
  N   N60       1.0  0.39402189973718743  0.29345  0.5186  1.0000
  C   C83       1.0  0.446629733680598  0.4471500000000001  0.8074  1.0000
  N   N61       1.0  0.44002494158625344  0.4565500000000001  0.7686  1.0000
  H   H105      1.0  0.46106275586797124  0.4077  0.69535  1.0000
  H   H106      1.0  0.4395905324417932  0.4584  0.82965  1.0000
  C   C84       1.0  0.4618961121859153  0.33040000000000014  0.69715  1.0000
  N   N62       1.0  0.4876503686074873  0.34035  0.70655  1.0000
  H   H107      1.0  0.44712620127426683  0.341  0.7084000000000003  1.0000
  H   H108      1.0  0.4637224036911972  0.30865  0.8423000000000003  1.0000
  C   C85       1.0  0.4618961121859153  0.1696  0.8028500000000002  1.0000
  N   N63       1.0  0.4876503686074873  0.15965  0.7934500000000002  1.0000
  H   H109      1.0  0.44712620127426683  0.159  0.7916  1.0000
  H   H110      1.0  0.4637224036911972  0.19135000000000005  0.6577  1.0000
  C   C86       1.0  0.4618961121859153  0.19715000000000005  0.8304  1.0000
  N   N64       1.0  0.4876503686074873  0.20655  0.8403500000000003  1.0000
  H   H111      1.0  0.44712620127426683  0.2084  0.8410000000000002  1.0000
  H   H112      1.0  0.4637224036911972  0.3423  0.80865  1.0000
  C   C87       1.0  0.4618961121859153  0.30285  0.6696000000000002  1.0000
  N   N65       1.0  0.4876503686074873  0.29345  0.65965  1.0000
  H   H113      1.0  0.44712620127426683  0.29160000000000014  0.659  1.0000
  H   H114      1.0  0.4637224036911972  0.15770000000000003  0.69135  1.0000
  N   N66       1.0  0.4711516866107419  0.09035  0.7314000000000003  1.0000
  C   C88       1.0  0.4649192452116489  0.4196  0.8074  1.0000
  N   N67       1.0  0.4711516866107419  0.4096500000000001  0.7686  1.0000
  H   H115      1.0  0.4387305796456168  0.44135  0.69535  1.0000
  H   H116      1.0  0.4723839901021699  0.4090000000000001  0.82965  1.0000
  N   N68       1.0  0.39402189973718743  0.48140000000000005  0.70655  1.0000
  C   C89       1.0  0.446629733680598  0.19260000000000005  0.55285  1.0000
  N   N69       1.0  0.44002494158625344  0.23140000000000005  0.54345  1.0000
  H   H117      1.0  0.46106275586797124  0.3046500000000001  0.5923  1.0000
  H   H118      1.0  0.4395905324417932  0.17035000000000006  0.5416  1.0000
  C   C90       1.0  0.446629733680598  0.30740000000000006  0.94715  1.0000
  N   N70       1.0  0.44002494158625344  0.26860000000000006  0.9565500000000001  1.0000
  H   H119      1.0  0.46106275586797124  0.19535000000000005  0.9077  1.0000
  H   H120      1.0  0.4395905324417932  0.3296500000000001  0.9584000000000001  1.0000
  Zn  Zn15      1.0  0.4170189879153483  0.25  0.5  1.0000
  C   C91       1.0  0.4563374482353729  0.2518  0.56577  1.0000
  C   C92       1.0  0.456443834148302  0.2953  0.56561  1.0000
  H   H121      1.0  0.4692633366562515  0.30545  0.5463  1.0000
  C   C93       1.0  0.4563374482353729  0.2482  0.9342300000000002  1.0000
  C   C94       1.0  0.456443834148302  0.2047  0.9343900000000003  1.0000
  H   H122      1.0  0.4692633366562515  0.19455  0.9537  1.0000
  C   C95       1.0  0.4563374482353729  0.43423  0.7482  1.0000
  C   C96       1.0  0.456443834148302  0.43439  0.7047  1.0000
  H   H123      1.0  0.4692633366562515  0.4537000000000001  0.6945500000000002  1.0000
  C   C97       1.0  0.49880315847954837  0.31577  0.81577  1.0000
  C   C98       1.0  0.46992824861205784  0.31561  0.81561  1.0000
  H   H124      1.0  0.46319047412655195  0.2963  0.7963000000000002  1.0000
  C   C99       1.0  0.49880315847954837  0.18423  0.68423  1.0000
  C   C100      1.0  0.46992824861205784  0.18439  0.68439  1.0000
  H   H125      1.0  0.46319047412655195  0.2037  0.7037  1.0000
  C   C101      1.0  0.5350807547883513  0.30740000000000006  0.5804  1.0000
  N   N71       1.0  0.5288394478965142  0.26860000000000006  0.59035  1.0000
  H   H126      1.0  0.5612694203543833  0.19535000000000005  0.5586500000000002  1.0000
  H   H127      1.0  0.5276160098978302  0.3296500000000001  0.591  1.0000
  C   C102      1.0  0.5350807547883513  0.19260000000000005  0.9196  1.0000
  N   N72       1.0  0.5288394478965142  0.23140000000000005  0.9096500000000002  1.0000
  H   H128      1.0  0.5612694203543833  0.3046500000000001  0.94135  1.0000
  H   H129      1.0  0.5276160098978302  0.17035000000000006  0.9090000000000001  1.0000
  C   C103      1.0  0.553370266319402  0.4471500000000001  0.6926000000000002  1.0000
  N   N73       1.0  0.5599750584137466  0.4565500000000001  0.7314000000000003  1.0000
  H   H130      1.0  0.5389372441320288  0.4077  0.8046500000000001  1.0000
  H   H131      1.0  0.5604094675582069  0.4584  0.67035  1.0000
  N   N74       1.0  0.6059781002628126  0.29345  0.9814000000000002  1.0000
  N   N75       1.0  0.6059781002628126  0.20655  0.5186  1.0000
  H   H132      1.0  0.5362775963088029  0.30865  0.6577  1.0000
  C   C104      1.0  0.5381038878140848  0.33040000000000014  0.8028500000000002  1.0000
  N   N76       1.0  0.5123496313925128  0.34035  0.7934500000000002  1.0000
  H   H133      1.0  0.5528737987257332  0.341  0.7916  1.0000
  H   H134      1.0  0.5362775963088029  0.19135000000000005  0.8423000000000003  1.0000
  C   C105      1.0  0.5381038878140848  0.1696  0.69715  1.0000
  N   N77       1.0  0.5123496313925128  0.15965  0.70655  1.0000
  H   H135      1.0  0.5528737987257332  0.159  0.7084000000000003  1.0000
  H   H136      1.0  0.5362775963088029  0.15770000000000003  0.80865  1.0000
  C   C106      1.0  0.5381038878140848  0.30285  0.8304  1.0000
  N   N78       1.0  0.5123496313925128  0.29345  0.8403500000000003  1.0000
  H   H137      1.0  0.5528737987257332  0.29160000000000014  0.8410000000000002  1.0000
  H   H138      1.0  0.5362775963088029  0.3423  0.69135  1.0000
  C   C107      1.0  0.5381038878140848  0.19715000000000005  0.6696000000000002  1.0000
  N   N79       1.0  0.5123496313925128  0.20655  0.65965  1.0000
  H   H139      1.0  0.5528737987257332  0.2084  0.659  1.0000
  N   N80       1.0  0.5288394478965142  0.09035  0.7686  1.0000
  C   C108      1.0  0.5350807547883513  0.4196  0.6926000000000002  1.0000
  N   N81       1.0  0.5288394478965142  0.4096500000000001  0.7314000000000003  1.0000
  H   H140      1.0  0.5612694203543833  0.44135  0.8046500000000001  1.0000
  H   H141      1.0  0.5276160098978302  0.4090000000000001  0.67035  1.0000
  C   C109      1.0  0.553370266319402  0.19260000000000005  0.94715  1.0000
  N   N82       1.0  0.5599750584137466  0.23140000000000005  0.9565500000000001  1.0000
  H   H142      1.0  0.5389372441320288  0.3046500000000001  0.9077  1.0000
  H   H143      1.0  0.5604094675582069  0.17035000000000006  0.9584000000000001  1.0000
  C   C110      1.0  0.553370266319402  0.30740000000000006  0.55285  1.0000
  N   N83       1.0  0.5599750584137466  0.26860000000000006  0.54345  1.0000
  H   H144      1.0  0.5389372441320288  0.19535000000000005  0.5923  1.0000
  H   H145      1.0  0.5604094675582069  0.3296500000000001  0.5416  1.0000
  N   N84       1.0  0.6059781002628126  0.48140000000000005  0.7934500000000002  1.0000
  Zn  Zn16      1.0  0.5829810120846518  0.25  0.5  1.0000
  Zn  Zn17      1.0  0.5  0.3750000000000001  0.7500000000000002  1.0000
  Zn  Zn18      1.0  0.5  0.125  0.7500000000000002  1.0000
  Zn  Zn19      1.0  0.5  0.25  0.8750000000000002  1.0000
  Zn  Zn20      1.0  0.5  0.25  0.625  1.0000
  C   C111      1.0  0.5436625517646272  0.2482  0.56577  1.0000
  C   C112      1.0  0.5435561658516981  0.2047  0.56561  1.0000
  H   H146      1.0  0.5307366633437487  0.19455  0.5463  1.0000
  C   C113      1.0  0.5436625517646272  0.2518  0.9342300000000002  1.0000
  C   C114      1.0  0.5435561658516981  0.2953  0.9343900000000003  1.0000
  H   H147      1.0  0.5307366633437487  0.30545  0.9537  1.0000
  C   C115      1.0  0.5436625517646272  0.43423  0.7518000000000002  1.0000
  C   C116      1.0  0.5435561658516981  0.43439  0.7953  1.0000
  H   H148      1.0  0.5307366633437487  0.4537000000000001  0.80545  1.0000
  C   C117      1.0  0.5011968415204517  0.31577  0.68423  1.0000
  C   C118      1.0  0.5300717513879423  0.31561  0.68439  1.0000
  H   H149      1.0  0.5368095258734481  0.2963  0.7037  1.0000
  C   C119      1.0  0.5011968415204517  0.18423  0.81577  1.0000
  C   C120      1.0  0.5300717513879423  0.18439  0.81561  1.0000
  H   H150      1.0  0.5368095258734481  0.2037  0.7963000000000002  1.0000
  C   C121      1.0  0.4649192452116489  0.6926000000000002  0.5804  1.0000
  N   N85       1.0  0.4711516866107419  0.7314000000000003  0.59035  1.0000
  H   H151      1.0  0.4387305796456168  0.8046500000000001  0.5586500000000002  1.0000
  H   H152      1.0  0.4723839901021699  0.67035  0.591  1.0000
  C   C122      1.0  0.4649192452116489  0.8074  0.9196  1.0000
  N   N86       1.0  0.4711516866107419  0.7686  0.9096500000000002  1.0000
  H   H153      1.0  0.4387305796456168  0.69535  0.94135  1.0000
  H   H154      1.0  0.4723839901021699  0.82965  0.9090000000000001  1.0000
  N   N87       1.0  0.39402189973718743  0.70655  0.9814000000000002  1.0000
  N   N88       1.0  0.39402189973718743  0.7934500000000002  0.5186  1.0000
  C   C123      1.0  0.446629733680598  0.55285  0.6926000000000002  1.0000
  N   N89       1.0  0.44002494158625344  0.54345  0.7314000000000003  1.0000
  H   H155      1.0  0.46106275586797124  0.5923  0.8046500000000001  1.0000
  H   H156      1.0  0.4395905324417932  0.5416  0.67035  1.0000
  C   C124      1.0  0.4618961121859153  0.8304  0.69715  1.0000
  N   N90       1.0  0.4876503686074873  0.8403500000000003  0.70655  1.0000
  H   H157      1.0  0.44712620127426683  0.8410000000000002  0.7084000000000003  1.0000
  H   H158      1.0  0.4637224036911972  0.80865  0.8423000000000003  1.0000
  C   C125      1.0  0.4618961121859153  0.6696000000000002  0.8028500000000002  1.0000
  N   N91       1.0  0.4876503686074873  0.65965  0.7934500000000002  1.0000
  H   H159      1.0  0.44712620127426683  0.659  0.7916  1.0000
  H   H160      1.0  0.4637224036911972  0.69135  0.6577  1.0000
  C   C126      1.0  0.4618961121859153  0.69715  0.8304  1.0000
  N   N92       1.0  0.4876503686074873  0.70655  0.8403500000000003  1.0000
  H   H161      1.0  0.44712620127426683  0.7084000000000003  0.8410000000000002  1.0000
  H   H162      1.0  0.4637224036911972  0.8423000000000003  0.80865  1.0000
  C   C127      1.0  0.4618961121859153  0.8028500000000002  0.6696000000000002  1.0000
  N   N93       1.0  0.4876503686074873  0.7934500000000002  0.65965  1.0000
  H   H163      1.0  0.44712620127426683  0.7916  0.659  1.0000
  H   H164      1.0  0.4637224036911972  0.6577  0.69135  1.0000
  C   C128      1.0  0.4649192452116489  0.5804  0.6926000000000002  1.0000
  N   N94       1.0  0.4711516866107419  0.59035  0.7314000000000003  1.0000
  H   H165      1.0  0.4387305796456168  0.5586500000000002  0.8046500000000001  1.0000
  H   H166      1.0  0.4723839901021699  0.591  0.67035  1.0000
  N   N95       1.0  0.4711516866107419  0.9096500000000002  0.7686  1.0000
  N   N96       1.0  0.39402189973718743  0.5186  0.7934500000000002  1.0000
  C   C129      1.0  0.446629733680598  0.6926000000000002  0.55285  1.0000
  N   N97       1.0  0.44002494158625344  0.7314000000000003  0.54345  1.0000
  H   H167      1.0  0.46106275586797124  0.8046500000000001  0.5923  1.0000
  H   H168      1.0  0.4395905324417932  0.67035  0.5416  1.0000
  C   C130      1.0  0.446629733680598  0.8074  0.94715  1.0000
  N   N98       1.0  0.44002494158625344  0.7686  0.9565500000000001  1.0000
  H   H169      1.0  0.46106275586797124  0.69535  0.9077  1.0000
  H   H170      1.0  0.4395905324417932  0.82965  0.9584000000000001  1.0000
  Zn  Zn21      1.0  0.4170189879153483  0.7500000000000002  0.5  1.0000
  Zn  Zn22      1.0  0.4170189879153483  0.5  0.7500000000000002  1.0000
  C   C131      1.0  0.4563374482353729  0.7518000000000002  0.56577  1.0000
  C   C132      1.0  0.456443834148302  0.7953  0.56561  1.0000
  H   H171      1.0  0.4692633366562515  0.80545  0.5463  1.0000
  C   C133      1.0  0.4563374482353729  0.7482  0.9342300000000002  1.0000
  C   C134      1.0  0.456443834148302  0.7047  0.9343900000000003  1.0000
  H   H172      1.0  0.4692633366562515  0.6945500000000002  0.9537  1.0000
  C   C135      1.0  0.4563374482353729  0.56577  0.7518000000000002  1.0000
  C   C136      1.0  0.456443834148302  0.56561  0.7953  1.0000
  H   H173      1.0  0.4692633366562515  0.5463  0.80545  1.0000
  C   C137      1.0  0.49880315847954837  0.81577  0.81577  1.0000
  C   C138      1.0  0.46992824861205784  0.81561  0.81561  1.0000
  H   H174      1.0  0.46319047412655195  0.7963000000000002  0.7963000000000002  1.0000
  C   C139      1.0  0.49880315847954837  0.68423  0.68423  1.0000
  C   C140      1.0  0.46992824861205784  0.68439  0.68439  1.0000
  H   H175      1.0  0.46319047412655195  0.7037  0.7037  1.0000
  C   C141      1.0  0.5350807547883513  0.8074  0.5804  1.0000
  N   N99       1.0  0.5288394478965142  0.7686  0.59035  1.0000
  H   H176      1.0  0.5612694203543833  0.69535  0.5586500000000002  1.0000
  H   H177      1.0  0.5276160098978302  0.82965  0.591  1.0000
  C   C142      1.0  0.5350807547883513  0.6926000000000002  0.9196  1.0000
  N   N100      1.0  0.5288394478965142  0.7314000000000003  0.9096500000000002  1.0000
  H   H178      1.0  0.5612694203543833  0.8046500000000001  0.94135  1.0000
  H   H179      1.0  0.5276160098978302  0.67035  0.9090000000000001  1.0000
  C   C143      1.0  0.553370266319402  0.55285  0.8074  1.0000
  N   N101      1.0  0.5599750584137466  0.54345  0.7686  1.0000
  H   H180      1.0  0.5389372441320288  0.5923  0.69535  1.0000
  H   H181      1.0  0.5604094675582069  0.5416  0.82965  1.0000
  N   N102      1.0  0.6059781002628126  0.7934500000000002  0.9814000000000002  1.0000
  N   N103      1.0  0.6059781002628126  0.70655  0.5186  1.0000
  H   H182      1.0  0.5362775963088029  0.80865  0.6577  1.0000
  C   C144      1.0  0.5381038878140848  0.8304  0.8028500000000002  1.0000
  N   N104      1.0  0.5123496313925128  0.8403500000000003  0.7934500000000002  1.0000
  H   H183      1.0  0.5528737987257332  0.8410000000000002  0.7916  1.0000
  H   H184      1.0  0.5362775963088029  0.69135  0.8423000000000003  1.0000
  C   C145      1.0  0.5381038878140848  0.6696000000000002  0.69715  1.0000
  N   N105      1.0  0.5123496313925128  0.65965  0.70655  1.0000
  H   H185      1.0  0.5528737987257332  0.659  0.7084000000000003  1.0000
  H   H186      1.0  0.5362775963088029  0.6577  0.80865  1.0000
  C   C146      1.0  0.5381038878140848  0.8028500000000002  0.8304  1.0000
  N   N106      1.0  0.5123496313925128  0.7934500000000002  0.8403500000000003  1.0000
  H   H187      1.0  0.5528737987257332  0.7916  0.8410000000000002  1.0000
  H   H188      1.0  0.5362775963088029  0.8423000000000003  0.69135  1.0000
  C   C147      1.0  0.5381038878140848  0.69715  0.6696000000000002  1.0000
  N   N107      1.0  0.5123496313925128  0.70655  0.65965  1.0000
  H   H189      1.0  0.5528737987257332  0.7084000000000003  0.659  1.0000
  C   C148      1.0  0.5350807547883513  0.5804  0.8074  1.0000
  N   N108      1.0  0.5288394478965142  0.59035  0.7686  1.0000
  H   H190      1.0  0.5612694203543833  0.5586500000000002  0.69535  1.0000
  H   H191      1.0  0.5276160098978302  0.591  0.82965  1.0000
  N   N109      1.0  0.5288394478965142  0.9096500000000002  0.7314000000000003  1.0000
  C   C149      1.0  0.553370266319402  0.6926000000000002  0.94715  1.0000
  N   N110      1.0  0.5599750584137466  0.7314000000000003  0.9565500000000001  1.0000
  H   H192      1.0  0.5389372441320288  0.8046500000000001  0.9077  1.0000
  H   H193      1.0  0.5604094675582069  0.67035  0.9584000000000001  1.0000
  C   C150      1.0  0.553370266319402  0.8074  0.55285  1.0000
  N   N111      1.0  0.5599750584137466  0.7686  0.54345  1.0000
  H   H194      1.0  0.5389372441320288  0.69535  0.5923  1.0000
  H   H195      1.0  0.5604094675582069  0.82965  0.5416  1.0000
  N   N112      1.0  0.6059781002628126  0.5186  0.70655  1.0000
  Zn  Zn23      1.0  0.5829810120846518  0.7500000000000002  0.5  1.0000
  Zn  Zn24      1.0  0.5  0.8750000000000002  0.7500000000000002  1.0000
  Zn  Zn25      1.0  0.5  0.625  0.7500000000000002  1.0000
  Zn  Zn26      1.0  0.5  0.7500000000000002  0.8750000000000002  1.0000
  Zn  Zn27      1.0  0.5  0.7500000000000002  0.625  1.0000
  Zn  Zn28      1.0  0.5829810120846518  0.5  0.7500000000000002  1.0000
  C   C151      1.0  0.5436625517646272  0.7482  0.56577  1.0000
  C   C152      1.0  0.5435561658516981  0.7047  0.56561  1.0000
  H   H196      1.0  0.5307366633437487  0.6945500000000002  0.5463  1.0000
  C   C153      1.0  0.5436625517646272  0.7518000000000002  0.9342300000000002  1.0000
  C   C154      1.0  0.5435561658516981  0.7953  0.9343900000000003  1.0000
  H   H197      1.0  0.5307366633437487  0.80545  0.9537  1.0000
  C   C155      1.0  0.5436625517646272  0.56577  0.7482  1.0000
  C   C156      1.0  0.5435561658516981  0.56561  0.7047  1.0000
  H   H198      1.0  0.5307366633437487  0.5463  0.6945500000000002  1.0000
  C   C157      1.0  0.5011968415204517  0.81577  0.68423  1.0000
  C   C158      1.0  0.5300717513879423  0.81561  0.68439  1.0000
  H   H199      1.0  0.5368095258734481  0.7963000000000002  0.7037  1.0000
  C   C159      1.0  0.5011968415204517  0.68423  0.81577  1.0000
  C   C160      1.0  0.5300717513879423  0.68439  0.81561  1.0000
  H   H200      1.0  0.5368095258734481  0.7037  0.7963000000000002  1.0000
  O   O1        1.0  0.39049970469297773  0.760754313941442  0.3904969124308242  1.0000
  O   O2        1.0  0.41287718851980837  0.785961032168938  0.5003673330683093  1.0000
  U   U1        1.0  0.4016874814230196  0.7733588741337043  0.4454336853252642  1.0000
