data_100-1
_audit_creation_date              2025-07-19
_audit_creation_method            'Materials Studio'
_symmetry_space_group_name_H-M    'P1'
_symmetry_Int_Tables_number       1
_symmetry_cell_setting            triclinic
loop_
_symmetry_equiv_pos_as_xyz
  x,y,z
_cell_length_a                    45.0000
_cell_length_b                    33.6950
_cell_length_c                    33.6950
_cell_angle_alpha                 90.0000
_cell_angle_beta                  90.0000
_cell_angle_gamma                 90.0000
loop_
_atom_site_label
_atom_site_type_symbol
_atom_site_fract_x
_atom_site_fract_y
_atom_site_fract_z
_atom_site_U_iso_or_equiv
_atom_site_adp_type
_atom_site_occupancy
C1     C     0.33482   0.19260   0.08040   0.00000  Uiso   1.00
N2     N     0.34185   0.23140   0.09035   0.00000  Uiso   1.00
H3     H     0.30528   0.30465   0.05865   0.00000  Uiso   1.00
H4     H     0.34324   0.17035   0.09100   0.00000  Uiso   1.00
C5     C     0.33482   0.30740   0.41960   0.00000  Uiso   1.00
N6     N     0.34185   0.26860   0.40965   0.00000  Uiso   1.00
H7     H     0.30528   0.19535   0.44135   0.00000  Uiso   1.00
H8     H     0.34324   0.32965   0.40900   0.00000  Uiso   1.00
N9     N     0.25485   0.20655   0.48140   0.00000  Uiso   1.00
N10    N     0.25485   0.29345   0.01860   0.00000  Uiso   1.00
C11    C     0.31419   0.44715   0.30740   0.00000  Uiso   1.00
N12    N     0.30674   0.45655   0.26860   0.00000  Uiso   1.00
H13    H     0.33047   0.40770   0.19535   0.00000  Uiso   1.00
H14    H     0.30625   0.45840   0.32965   0.00000  Uiso   1.00
C15    C     0.33141   0.33040   0.19715   0.00000  Uiso   1.00
N16    N     0.36046   0.34035   0.20655   0.00000  Uiso   1.00
H17    H     0.31475   0.34100   0.20840   0.00000  Uiso   1.00
H18    H     0.33347   0.30865   0.34230   0.00000  Uiso   1.00
C19    C     0.33141   0.16960   0.30285   0.00000  Uiso   1.00
N20    N     0.36046   0.15965   0.29345   0.00000  Uiso   1.00
H21    H     0.31475   0.15900   0.29160   0.00000  Uiso   1.00
H22    H     0.33347   0.19135   0.15770   0.00000  Uiso   1.00
C23    C     0.33141   0.19715   0.33040   0.00000  Uiso   1.00
N24    N     0.36046   0.20655   0.34035   0.00000  Uiso   1.00
H25    H     0.31475   0.20840   0.34100   0.00000  Uiso   1.00
H26    H     0.33347   0.34230   0.30865   0.00000  Uiso   1.00
C27    C     0.33141   0.30285   0.16960   0.00000  Uiso   1.00
N28    N     0.36046   0.29345   0.15965   0.00000  Uiso   1.00
H29    H     0.31475   0.29160   0.15900   0.00000  Uiso   1.00
H30    H     0.33347   0.15770   0.19135   0.00000  Uiso   1.00
N31    N     0.34185   0.09035   0.23140   0.00000  Uiso   1.00
C32    C     0.33482   0.41960   0.30740   0.00000  Uiso   1.00
N33    N     0.34185   0.40965   0.26860   0.00000  Uiso   1.00
H34    H     0.30528   0.44135   0.19535   0.00000  Uiso   1.00
H35    H     0.34324   0.40900   0.32965   0.00000  Uiso   1.00
N36    N     0.25485   0.48140   0.20655   0.00000  Uiso   1.00
C37    C     0.31419   0.19260   0.05285   0.00000  Uiso   1.00
N38    N     0.30674   0.23140   0.04345   0.00000  Uiso   1.00
H39    H     0.33047   0.30465   0.09230   0.00000  Uiso   1.00
H40    H     0.30625   0.17035   0.04160   0.00000  Uiso   1.00
C41    C     0.31419   0.30740   0.44715   0.00000  Uiso   1.00
N42    N     0.30674   0.26860   0.45655   0.00000  Uiso   1.00
H43    H     0.33047   0.19535   0.40770   0.00000  Uiso   1.00
H44    H     0.30625   0.32965   0.45840   0.00000  Uiso   1.00
Zn45   Zn    0.28079   0.25000   0.00000   0.00000  Uiso   1.00
C46    C     0.32514   0.25180   0.06577   0.00000  Uiso   1.00
C47    C     0.32526   0.29530   0.06561   0.00000  Uiso   1.00
H48    H     0.33972   0.30545   0.04630   0.00000  Uiso   1.00
C49    C     0.32514   0.24820   0.43423   0.00000  Uiso   1.00
C50    C     0.32526   0.20470   0.43439   0.00000  Uiso   1.00
H51    H     0.33972   0.19455   0.45370   0.00000  Uiso   1.00
C52    C     0.32514   0.43423   0.24820   0.00000  Uiso   1.00
C53    C     0.32526   0.43439   0.20470   0.00000  Uiso   1.00
H54    H     0.33972   0.45370   0.19455   0.00000  Uiso   1.00
C55    C     0.37304   0.31577   0.31577   0.00000  Uiso   1.00
C56    C     0.34047   0.31561   0.31561   0.00000  Uiso   1.00
H57    H     0.33287   0.29630   0.29630   0.00000  Uiso   1.00
C58    C     0.37304   0.18423   0.18423   0.00000  Uiso   1.00
C59    C     0.34047   0.18439   0.18439   0.00000  Uiso   1.00
H60    H     0.33287   0.20370   0.20370   0.00000  Uiso   1.00
C61    C     0.41396   0.30740   0.08040   0.00000  Uiso   1.00
N62    N     0.40692   0.26860   0.09035   0.00000  Uiso   1.00
H63    H     0.44350   0.19535   0.05865   0.00000  Uiso   1.00
H64    H     0.40554   0.32965   0.09100   0.00000  Uiso   1.00
C65    C     0.41396   0.19260   0.41960   0.00000  Uiso   1.00
N66    N     0.40692   0.23140   0.40965   0.00000  Uiso   1.00
H67    H     0.44350   0.30465   0.44135   0.00000  Uiso   1.00
H68    H     0.40554   0.17035   0.40900   0.00000  Uiso   1.00
C69    C     0.43459   0.44715   0.19260   0.00000  Uiso   1.00
N70    N     0.44204   0.45655   0.23140   0.00000  Uiso   1.00
H71    H     0.41831   0.40770   0.30465   0.00000  Uiso   1.00
H72    H     0.44253   0.45840   0.17035   0.00000  Uiso   1.00
N73    N     0.49393   0.29345   0.48140   0.00000  Uiso   1.00
N74    N     0.49393   0.20655   0.01860   0.00000  Uiso   1.00
H75    H     0.41531   0.30865   0.15770   0.00000  Uiso   1.00
C76    C     0.41737   0.33040   0.30285   0.00000  Uiso   1.00
N77    N     0.38832   0.34035   0.29345   0.00000  Uiso   1.00
H78    H     0.43403   0.34100   0.29160   0.00000  Uiso   1.00
H79    H     0.41531   0.19135   0.34230   0.00000  Uiso   1.00
C80    C     0.41737   0.16960   0.19715   0.00000  Uiso   1.00
N81    N     0.38832   0.15965   0.20655   0.00000  Uiso   1.00
H82    H     0.43403   0.15900   0.20840   0.00000  Uiso   1.00
H83    H     0.41531   0.15770   0.30865   0.00000  Uiso   1.00
C84    C     0.41737   0.30285   0.33040   0.00000  Uiso   1.00
N85    N     0.38832   0.29345   0.34035   0.00000  Uiso   1.00
H86    H     0.43403   0.29160   0.34100   0.00000  Uiso   1.00
H87    H     0.41531   0.34230   0.19135   0.00000  Uiso   1.00
C88    C     0.41737   0.19715   0.16960   0.00000  Uiso   1.00
N89    N     0.38832   0.20655   0.15965   0.00000  Uiso   1.00
H90    H     0.43403   0.20840   0.15900   0.00000  Uiso   1.00
N91    N     0.40692   0.09035   0.26860   0.00000  Uiso   1.00
C92    C     0.41396   0.41960   0.19260   0.00000  Uiso   1.00
N93    N     0.40692   0.40965   0.23140   0.00000  Uiso   1.00
H94    H     0.44350   0.44135   0.30465   0.00000  Uiso   1.00
H95    H     0.40554   0.40900   0.17035   0.00000  Uiso   1.00
C96    C     0.43459   0.19260   0.44715   0.00000  Uiso   1.00
N97    N     0.44204   0.23140   0.45655   0.00000  Uiso   1.00
H98    H     0.41831   0.30465   0.40770   0.00000  Uiso   1.00
H99    H     0.44253   0.17035   0.45840   0.00000  Uiso   1.00
C100   C     0.43459   0.30740   0.05285   0.00000  Uiso   1.00
N101   N     0.44204   0.26860   0.04345   0.00000  Uiso   1.00
H102   H     0.41831   0.19535   0.09230   0.00000  Uiso   1.00
H103   H     0.44253   0.32965   0.04160   0.00000  Uiso   1.00
N104   N     0.49393   0.48140   0.29345   0.00000  Uiso   1.00
Zn105  Zn    0.46799   0.25000   0.00000   0.00000  Uiso   1.00
Zn106  Zn    0.37439   0.37500   0.25000   0.00000  Uiso   1.00
Zn107  Zn    0.37439   0.12500   0.25000   0.00000  Uiso   1.00
Zn108  Zn    0.37439   0.25000   0.37500   0.00000  Uiso   1.00
Zn109  Zn    0.37439   0.25000   0.12500   0.00000  Uiso   1.00
C110   C     0.42364   0.24820   0.06577   0.00000  Uiso   1.00
C111   C     0.42352   0.20470   0.06561   0.00000  Uiso   1.00
H112   H     0.40906   0.19455   0.04630   0.00000  Uiso   1.00
C113   C     0.42364   0.25180   0.43423   0.00000  Uiso   1.00
C114   C     0.42352   0.29530   0.43439   0.00000  Uiso   1.00
H115   H     0.40906   0.30545   0.45370   0.00000  Uiso   1.00
C116   C     0.42364   0.43423   0.25180   0.00000  Uiso   1.00
C117   C     0.42352   0.43439   0.29530   0.00000  Uiso   1.00
H118   H     0.40906   0.45370   0.30545   0.00000  Uiso   1.00
C119   C     0.37574   0.31577   0.18423   0.00000  Uiso   1.00
C120   C     0.40831   0.31561   0.18439   0.00000  Uiso   1.00
H121   H     0.41591   0.29630   0.20370   0.00000  Uiso   1.00
C122   C     0.37574   0.18423   0.31577   0.00000  Uiso   1.00
C123   C     0.40831   0.18439   0.31561   0.00000  Uiso   1.00
H124   H     0.41591   0.20370   0.29630   0.00000  Uiso   1.00
C125   C     0.33482   0.69260   0.08040   0.00000  Uiso   1.00
N126   N     0.34185   0.73140   0.09035   0.00000  Uiso   1.00
H127   H     0.30528   0.80465   0.05865   0.00000  Uiso   1.00
H128   H     0.34324   0.67035   0.09100   0.00000  Uiso   1.00
C129   C     0.33482   0.80740   0.41960   0.00000  Uiso   1.00
N130   N     0.34185   0.76860   0.40965   0.00000  Uiso   1.00
H131   H     0.30528   0.69535   0.44135   0.00000  Uiso   1.00
H132   H     0.34324   0.82965   0.40900   0.00000  Uiso   1.00
N133   N     0.25485   0.70655   0.48140   0.00000  Uiso   1.00
N134   N     0.25485   0.79345   0.01860   0.00000  Uiso   1.00
C135   C     0.31419   0.55285   0.19260   0.00000  Uiso   1.00
N136   N     0.30674   0.54345   0.23140   0.00000  Uiso   1.00
H137   H     0.33047   0.59230   0.30465   0.00000  Uiso   1.00
H138   H     0.30625   0.54160   0.17035   0.00000  Uiso   1.00
C139   C     0.33141   0.83040   0.19715   0.00000  Uiso   1.00
N140   N     0.36046   0.84035   0.20655   0.00000  Uiso   1.00
H141   H     0.31475   0.84100   0.20840   0.00000  Uiso   1.00
H142   H     0.33347   0.80865   0.34230   0.00000  Uiso   1.00
C143   C     0.33141   0.66960   0.30285   0.00000  Uiso   1.00
N144   N     0.36046   0.65965   0.29345   0.00000  Uiso   1.00
H145   H     0.31475   0.65900   0.29160   0.00000  Uiso   1.00
H146   H     0.33347   0.69135   0.15770   0.00000  Uiso   1.00
C147   C     0.33141   0.69715   0.33040   0.00000  Uiso   1.00
N148   N     0.36046   0.70655   0.34035   0.00000  Uiso   1.00
H149   H     0.31475   0.70840   0.34100   0.00000  Uiso   1.00
H150   H     0.33347   0.84230   0.30865   0.00000  Uiso   1.00
C151   C     0.33141   0.80285   0.16960   0.00000  Uiso   1.00
N152   N     0.36046   0.79345   0.15965   0.00000  Uiso   1.00
H153   H     0.31475   0.79160   0.15900   0.00000  Uiso   1.00
H154   H     0.33347   0.65770   0.19135   0.00000  Uiso   1.00
C155   C     0.33482   0.58040   0.19260   0.00000  Uiso   1.00
N156   N     0.34185   0.59035   0.23140   0.00000  Uiso   1.00
H157   H     0.30528   0.55865   0.30465   0.00000  Uiso   1.00
H158   H     0.34324   0.59100   0.17035   0.00000  Uiso   1.00
N159   N     0.34185   0.90965   0.26860   0.00000  Uiso   1.00
N160   N     0.25485   0.51860   0.29345   0.00000  Uiso   1.00
C161   C     0.31419   0.69260   0.05285   0.00000  Uiso   1.00
N162   N     0.30674   0.73140   0.04345   0.00000  Uiso   1.00
H163   H     0.33047   0.80465   0.09230   0.00000  Uiso   1.00
H164   H     0.30625   0.67035   0.04160   0.00000  Uiso   1.00
C165   C     0.31419   0.80740   0.44715   0.00000  Uiso   1.00
N166   N     0.30674   0.76860   0.45655   0.00000  Uiso   1.00
H167   H     0.33047   0.69535   0.40770   0.00000  Uiso   1.00
H168   H     0.30625   0.82965   0.45840   0.00000  Uiso   1.00
Zn169  Zn    0.28079   0.75000   0.00000   0.00000  Uiso   1.00
Zn170  Zn    0.28079   0.50000   0.25000   0.00000  Uiso   1.00
C171   C     0.32514   0.75180   0.06577   0.00000  Uiso   1.00
C172   C     0.32526   0.79530   0.06561   0.00000  Uiso   1.00
H173   H     0.33972   0.80545   0.04630   0.00000  Uiso   1.00
C174   C     0.32514   0.74820   0.43423   0.00000  Uiso   1.00
C175   C     0.32526   0.70470   0.43439   0.00000  Uiso   1.00
H176   H     0.33972   0.69455   0.45370   0.00000  Uiso   1.00
C177   C     0.32514   0.56577   0.25180   0.00000  Uiso   1.00
C178   C     0.32526   0.56561   0.29530   0.00000  Uiso   1.00
H179   H     0.33972   0.54630   0.30545   0.00000  Uiso   1.00
C180   C     0.37304   0.81577   0.31577   0.00000  Uiso   1.00
C181   C     0.34047   0.81561   0.31561   0.00000  Uiso   1.00
H182   H     0.33287   0.79630   0.29630   0.00000  Uiso   1.00
C183   C     0.37304   0.68423   0.18423   0.00000  Uiso   1.00
C184   C     0.34047   0.68439   0.18439   0.00000  Uiso   1.00
H185   H     0.33287   0.70370   0.20370   0.00000  Uiso   1.00
C186   C     0.41396   0.80740   0.08040   0.00000  Uiso   1.00
N187   N     0.40692   0.76860   0.09035   0.00000  Uiso   1.00
H188   H     0.44350   0.69535   0.05865   0.00000  Uiso   1.00
H189   H     0.40554   0.82965   0.09100   0.00000  Uiso   1.00
C190   C     0.41396   0.69260   0.41960   0.00000  Uiso   1.00
N191   N     0.40692   0.73140   0.40965   0.00000  Uiso   1.00
H192   H     0.44350   0.80465   0.44135   0.00000  Uiso   1.00
H193   H     0.40554   0.67035   0.40900   0.00000  Uiso   1.00
C194   C     0.43459   0.55285   0.30740   0.00000  Uiso   1.00
N195   N     0.44204   0.54345   0.26860   0.00000  Uiso   1.00
H196   H     0.41831   0.59230   0.19535   0.00000  Uiso   1.00
H197   H     0.44253   0.54160   0.32965   0.00000  Uiso   1.00
N198   N     0.49393   0.79345   0.48140   0.00000  Uiso   1.00
N199   N     0.49393   0.70655   0.01860   0.00000  Uiso   1.00
H200   H     0.41531   0.80865   0.15770   0.00000  Uiso   1.00
C201   C     0.41737   0.83040   0.30285   0.00000  Uiso   1.00
N202   N     0.38832   0.84035   0.29345   0.00000  Uiso   1.00
H203   H     0.43403   0.84100   0.29160   0.00000  Uiso   1.00
H204   H     0.41531   0.69135   0.34230   0.00000  Uiso   1.00
C205   C     0.41737   0.66960   0.19715   0.00000  Uiso   1.00
N206   N     0.38832   0.65965   0.20655   0.00000  Uiso   1.00
H207   H     0.43403   0.65900   0.20840   0.00000  Uiso   1.00
H208   H     0.41531   0.65770   0.30865   0.00000  Uiso   1.00
C209   C     0.41737   0.80285   0.33040   0.00000  Uiso   1.00
N210   N     0.38832   0.79345   0.34035   0.00000  Uiso   1.00
H211   H     0.43403   0.79160   0.34100   0.00000  Uiso   1.00
H212   H     0.41531   0.84230   0.19135   0.00000  Uiso   1.00
C213   C     0.41737   0.69715   0.16960   0.00000  Uiso   1.00
N214   N     0.38832   0.70655   0.15965   0.00000  Uiso   1.00
H215   H     0.43403   0.70840   0.15900   0.00000  Uiso   1.00
C216   C     0.41396   0.58040   0.30740   0.00000  Uiso   1.00
N217   N     0.40692   0.59035   0.26860   0.00000  Uiso   1.00
H218   H     0.44350   0.55865   0.19535   0.00000  Uiso   1.00
H219   H     0.40554   0.59100   0.32965   0.00000  Uiso   1.00
N220   N     0.40692   0.90965   0.23140   0.00000  Uiso   1.00
C221   C     0.43459   0.69260   0.44715   0.00000  Uiso   1.00
N222   N     0.44204   0.73140   0.45655   0.00000  Uiso   1.00
H223   H     0.41831   0.80465   0.40770   0.00000  Uiso   1.00
H224   H     0.44253   0.67035   0.45840   0.00000  Uiso   1.00
C225   C     0.43459   0.80740   0.05285   0.00000  Uiso   1.00
N226   N     0.44204   0.76860   0.04345   0.00000  Uiso   1.00
H227   H     0.41831   0.69535   0.09230   0.00000  Uiso   1.00
H228   H     0.44253   0.82965   0.04160   0.00000  Uiso   1.00
N229   N     0.49393   0.51860   0.20655   0.00000  Uiso   1.00
Zn230  Zn    0.46799   0.75000   0.00000   0.00000  Uiso   1.00
Zn231  Zn    0.37439   0.87500   0.25000   0.00000  Uiso   1.00
Zn232  Zn    0.37439   0.62500   0.25000   0.00000  Uiso   1.00
Zn233  Zn    0.37439   0.75000   0.37500   0.00000  Uiso   1.00
Zn234  Zn    0.37439   0.75000   0.12500   0.00000  Uiso   1.00
Zn235  Zn    0.46799   0.50000   0.25000   0.00000  Uiso   1.00
C236   C     0.42364   0.74820   0.06577   0.00000  Uiso   1.00
C237   C     0.42352   0.70470   0.06561   0.00000  Uiso   1.00
H238   H     0.40906   0.69455   0.04630   0.00000  Uiso   1.00
C239   C     0.42364   0.75180   0.43423   0.00000  Uiso   1.00
C240   C     0.42352   0.79530   0.43439   0.00000  Uiso   1.00
H241   H     0.40906   0.80545   0.45370   0.00000  Uiso   1.00
C242   C     0.42364   0.56577   0.24820   0.00000  Uiso   1.00
C243   C     0.42352   0.56561   0.20470   0.00000  Uiso   1.00
H244   H     0.40906   0.54630   0.19455   0.00000  Uiso   1.00
C245   C     0.37574   0.81577   0.18423   0.00000  Uiso   1.00
C246   C     0.40831   0.81561   0.18439   0.00000  Uiso   1.00
H247   H     0.41591   0.79630   0.20370   0.00000  Uiso   1.00
C248   C     0.37574   0.68423   0.31577   0.00000  Uiso   1.00
C249   C     0.40831   0.68439   0.31561   0.00000  Uiso   1.00
H250   H     0.41591   0.70370   0.29630   0.00000  Uiso   1.00
C251   C     0.33482   0.19260   0.58040   0.00000  Uiso   1.00
N252   N     0.34185   0.23140   0.59035   0.00000  Uiso   1.00
H253   H     0.30528   0.30465   0.55865   0.00000  Uiso   1.00
H254   H     0.34324   0.17035   0.59100   0.00000  Uiso   1.00
C255   C     0.33482   0.30740   0.91960   0.00000  Uiso   1.00
N256   N     0.34185   0.26860   0.90965   0.00000  Uiso   1.00
H257   H     0.30528   0.19535   0.94135   0.00000  Uiso   1.00
H258   H     0.34324   0.32965   0.90900   0.00000  Uiso   1.00
N259   N     0.25485   0.20655   0.98140   0.00000  Uiso   1.00
N260   N     0.25485   0.29345   0.51860   0.00000  Uiso   1.00
C261   C     0.31419   0.44715   0.80740   0.00000  Uiso   1.00
N262   N     0.30674   0.45655   0.76860   0.00000  Uiso   1.00
H263   H     0.33047   0.40770   0.69535   0.00000  Uiso   1.00
H264   H     0.30625   0.45840   0.82965   0.00000  Uiso   1.00
C265   C     0.33141   0.33040   0.69715   0.00000  Uiso   1.00
N266   N     0.36046   0.34035   0.70655   0.00000  Uiso   1.00
H267   H     0.31475   0.34100   0.70840   0.00000  Uiso   1.00
H268   H     0.33347   0.30865   0.84230   0.00000  Uiso   1.00
C269   C     0.33141   0.16960   0.80285   0.00000  Uiso   1.00
N270   N     0.36046   0.15965   0.79345   0.00000  Uiso   1.00
H271   H     0.31475   0.15900   0.79160   0.00000  Uiso   1.00
H272   H     0.33347   0.19135   0.65770   0.00000  Uiso   1.00
C273   C     0.33141   0.19715   0.83040   0.00000  Uiso   1.00
N274   N     0.36046   0.20655   0.84035   0.00000  Uiso   1.00
H275   H     0.31475   0.20840   0.84100   0.00000  Uiso   1.00
H276   H     0.33347   0.34230   0.80865   0.00000  Uiso   1.00
C277   C     0.33141   0.30285   0.66960   0.00000  Uiso   1.00
N278   N     0.36046   0.29345   0.65965   0.00000  Uiso   1.00
H279   H     0.31475   0.29160   0.65900   0.00000  Uiso   1.00
H280   H     0.33347   0.15770   0.69135   0.00000  Uiso   1.00
N281   N     0.34185   0.09035   0.73140   0.00000  Uiso   1.00
C282   C     0.33482   0.41960   0.80740   0.00000  Uiso   1.00
N283   N     0.34185   0.40965   0.76860   0.00000  Uiso   1.00
H284   H     0.30528   0.44135   0.69535   0.00000  Uiso   1.00
H285   H     0.34324   0.40900   0.82965   0.00000  Uiso   1.00
N286   N     0.25485   0.48140   0.70655   0.00000  Uiso   1.00
C287   C     0.31419   0.19260   0.55285   0.00000  Uiso   1.00
N288   N     0.30674   0.23140   0.54345   0.00000  Uiso   1.00
H289   H     0.33047   0.30465   0.59230   0.00000  Uiso   1.00
H290   H     0.30625   0.17035   0.54160   0.00000  Uiso   1.00
C291   C     0.31419   0.30740   0.94715   0.00000  Uiso   1.00
N292   N     0.30674   0.26860   0.95655   0.00000  Uiso   1.00
H293   H     0.33047   0.19535   0.90770   0.00000  Uiso   1.00
H294   H     0.30625   0.32965   0.95840   0.00000  Uiso   1.00
Zn295  Zn    0.28079   0.25000   0.50000   0.00000  Uiso   1.00
C296   C     0.32514   0.25180   0.56577   0.00000  Uiso   1.00
C297   C     0.32526   0.29530   0.56561   0.00000  Uiso   1.00
H298   H     0.33972   0.30545   0.54630   0.00000  Uiso   1.00
C299   C     0.32514   0.24820   0.93423   0.00000  Uiso   1.00
C300   C     0.32526   0.20470   0.93439   0.00000  Uiso   1.00
H301   H     0.33972   0.19455   0.95370   0.00000  Uiso   1.00
C302   C     0.32514   0.43423   0.74820   0.00000  Uiso   1.00
C303   C     0.32526   0.43439   0.70470   0.00000  Uiso   1.00
H304   H     0.33972   0.45370   0.69455   0.00000  Uiso   1.00
C305   C     0.37304   0.31577   0.81577   0.00000  Uiso   1.00
C306   C     0.34047   0.31561   0.81561   0.00000  Uiso   1.00
H307   H     0.33287   0.29630   0.79630   0.00000  Uiso   1.00
C308   C     0.37304   0.18423   0.68423   0.00000  Uiso   1.00
C309   C     0.34047   0.18439   0.68439   0.00000  Uiso   1.00
H310   H     0.33287   0.20370   0.70370   0.00000  Uiso   1.00
C311   C     0.41396   0.30740   0.58040   0.00000  Uiso   1.00
N312   N     0.40692   0.26860   0.59035   0.00000  Uiso   1.00
H313   H     0.44350   0.19535   0.55865   0.00000  Uiso   1.00
H314   H     0.40554   0.32965   0.59100   0.00000  Uiso   1.00
C315   C     0.41396   0.19260   0.91960   0.00000  Uiso   1.00
N316   N     0.40692   0.23140   0.90965   0.00000  Uiso   1.00
H317   H     0.44350   0.30465   0.94135   0.00000  Uiso   1.00
H318   H     0.40554   0.17035   0.90900   0.00000  Uiso   1.00
C319   C     0.43459   0.44715   0.69260   0.00000  Uiso   1.00
N320   N     0.44204   0.45655   0.73140   0.00000  Uiso   1.00
H321   H     0.41831   0.40770   0.80465   0.00000  Uiso   1.00
H322   H     0.44253   0.45840   0.67035   0.00000  Uiso   1.00
N323   N     0.49393   0.29345   0.98140   0.00000  Uiso   1.00
N324   N     0.49393   0.20655   0.51860   0.00000  Uiso   1.00
H325   H     0.41531   0.30865   0.65770   0.00000  Uiso   1.00
C326   C     0.41737   0.33040   0.80285   0.00000  Uiso   1.00
N327   N     0.38832   0.34035   0.79345   0.00000  Uiso   1.00
H328   H     0.43403   0.34100   0.79160   0.00000  Uiso   1.00
H329   H     0.41531   0.19135   0.84230   0.00000  Uiso   1.00
C330   C     0.41737   0.16960   0.69715   0.00000  Uiso   1.00
N331   N     0.38832   0.15965   0.70655   0.00000  Uiso   1.00
H332   H     0.43403   0.15900   0.70840   0.00000  Uiso   1.00
H333   H     0.41531   0.15770   0.80865   0.00000  Uiso   1.00
C334   C     0.41737   0.30285   0.83040   0.00000  Uiso   1.00
N335   N     0.38832   0.29345   0.84035   0.00000  Uiso   1.00
H336   H     0.43403   0.29160   0.84100   0.00000  Uiso   1.00
H337   H     0.41531   0.34230   0.69135   0.00000  Uiso   1.00
C338   C     0.41737   0.19715   0.66960   0.00000  Uiso   1.00
N339   N     0.38832   0.20655   0.65965   0.00000  Uiso   1.00
H340   H     0.43403   0.20840   0.65900   0.00000  Uiso   1.00
N341   N     0.40692   0.09035   0.76860   0.00000  Uiso   1.00
C342   C     0.41396   0.41960   0.69260   0.00000  Uiso   1.00
N343   N     0.40692   0.40965   0.73140   0.00000  Uiso   1.00
H344   H     0.44350   0.44135   0.80465   0.00000  Uiso   1.00
H345   H     0.40554   0.40900   0.67035   0.00000  Uiso   1.00
C346   C     0.43459   0.19260   0.94715   0.00000  Uiso   1.00
N347   N     0.44204   0.23140   0.95655   0.00000  Uiso   1.00
H348   H     0.41831   0.30465   0.90770   0.00000  Uiso   1.00
H349   H     0.44253   0.17035   0.95840   0.00000  Uiso   1.00
C350   C     0.43459   0.30740   0.55285   0.00000  Uiso   1.00
N351   N     0.44204   0.26860   0.54345   0.00000  Uiso   1.00
H352   H     0.41831   0.19535   0.59230   0.00000  Uiso   1.00
H353   H     0.44253   0.32965   0.54160   0.00000  Uiso   1.00
N354   N     0.49393   0.48140   0.79345   0.00000  Uiso   1.00
Zn355  Zn    0.46799   0.25000   0.50000   0.00000  Uiso   1.00
Zn356  Zn    0.37439   0.37500   0.75000   0.00000  Uiso   1.00
Zn357  Zn    0.37439   0.12500   0.75000   0.00000  Uiso   1.00
Zn358  Zn    0.37439   0.25000   0.87500   0.00000  Uiso   1.00
Zn359  Zn    0.37439   0.25000   0.62500   0.00000  Uiso   1.00
C360   C     0.42364   0.24820   0.56577   0.00000  Uiso   1.00
C361   C     0.42352   0.20470   0.56561   0.00000  Uiso   1.00
H362   H     0.40906   0.19455   0.54630   0.00000  Uiso   1.00
C363   C     0.42364   0.25180   0.93423   0.00000  Uiso   1.00
C364   C     0.42352   0.29530   0.93439   0.00000  Uiso   1.00
H365   H     0.40906   0.30545   0.95370   0.00000  Uiso   1.00
C366   C     0.42364   0.43423   0.75180   0.00000  Uiso   1.00
C367   C     0.42352   0.43439   0.79530   0.00000  Uiso   1.00
H368   H     0.40906   0.45370   0.80545   0.00000  Uiso   1.00
C369   C     0.37574   0.31577   0.68423   0.00000  Uiso   1.00
C370   C     0.40831   0.31561   0.68439   0.00000  Uiso   1.00
H371   H     0.41591   0.29630   0.70370   0.00000  Uiso   1.00
C372   C     0.37574   0.18423   0.81577   0.00000  Uiso   1.00
C373   C     0.40831   0.18439   0.81561   0.00000  Uiso   1.00
H374   H     0.41591   0.20370   0.79630   0.00000  Uiso   1.00
C375   C     0.33482   0.69260   0.58040   0.00000  Uiso   1.00
N376   N     0.34185   0.73140   0.59035   0.00000  Uiso   1.00
H377   H     0.30528   0.80465   0.55865   0.00000  Uiso   1.00
H378   H     0.34324   0.67035   0.59100   0.00000  Uiso   1.00
C379   C     0.33482   0.80740   0.91960   0.00000  Uiso   1.00
N380   N     0.34185   0.76860   0.90965   0.00000  Uiso   1.00
H381   H     0.30528   0.69535   0.94135   0.00000  Uiso   1.00
H382   H     0.34324   0.82965   0.90900   0.00000  Uiso   1.00
N383   N     0.25485   0.70655   0.98140   0.00000  Uiso   1.00
N384   N     0.25485   0.79345   0.51860   0.00000  Uiso   1.00
C385   C     0.31419   0.55285   0.69260   0.00000  Uiso   1.00
N386   N     0.30674   0.54345   0.73140   0.00000  Uiso   1.00
H387   H     0.33047   0.59230   0.80465   0.00000  Uiso   1.00
H388   H     0.30625   0.54160   0.67035   0.00000  Uiso   1.00
C389   C     0.33141   0.83040   0.69715   0.00000  Uiso   1.00
N390   N     0.36046   0.84035   0.70655   0.00000  Uiso   1.00
H391   H     0.31475   0.84100   0.70840   0.00000  Uiso   1.00
H392   H     0.33347   0.80865   0.84230   0.00000  Uiso   1.00
C393   C     0.33141   0.66960   0.80285   0.00000  Uiso   1.00
N394   N     0.36046   0.65965   0.79345   0.00000  Uiso   1.00
H395   H     0.31475   0.65900   0.79160   0.00000  Uiso   1.00
H396   H     0.33347   0.69135   0.65770   0.00000  Uiso   1.00
C397   C     0.33141   0.69715   0.83040   0.00000  Uiso   1.00
N398   N     0.36046   0.70655   0.84035   0.00000  Uiso   1.00
H399   H     0.31475   0.70840   0.84100   0.00000  Uiso   1.00
H400   H     0.33347   0.84230   0.80865   0.00000  Uiso   1.00
C401   C     0.33141   0.80285   0.66960   0.00000  Uiso   1.00
N402   N     0.36046   0.79345   0.65965   0.00000  Uiso   1.00
H403   H     0.31475   0.79160   0.65900   0.00000  Uiso   1.00
H404   H     0.33347   0.65770   0.69135   0.00000  Uiso   1.00
C405   C     0.33482   0.58040   0.69260   0.00000  Uiso   1.00
N406   N     0.34185   0.59035   0.73140   0.00000  Uiso   1.00
H407   H     0.30528   0.55865   0.80465   0.00000  Uiso   1.00
H408   H     0.34324   0.59100   0.67035   0.00000  Uiso   1.00
N409   N     0.34185   0.90965   0.76860   0.00000  Uiso   1.00
N410   N     0.25485   0.51860   0.79345   0.00000  Uiso   1.00
C411   C     0.31419   0.69260   0.55285   0.00000  Uiso   1.00
N412   N     0.30674   0.73140   0.54345   0.00000  Uiso   1.00
H413   H     0.33047   0.80465   0.59230   0.00000  Uiso   1.00
H414   H     0.30625   0.67035   0.54160   0.00000  Uiso   1.00
C415   C     0.31419   0.80740   0.94715   0.00000  Uiso   1.00
N416   N     0.30674   0.76860   0.95655   0.00000  Uiso   1.00
H417   H     0.33047   0.69535   0.90770   0.00000  Uiso   1.00
H418   H     0.30625   0.82965   0.95840   0.00000  Uiso   1.00
Zn419  Zn    0.28079   0.75000   0.50000   0.00000  Uiso   1.00
Zn420  Zn    0.28079   0.50000   0.75000   0.00000  Uiso   1.00
C421   C     0.32514   0.75180   0.56577   0.00000  Uiso   1.00
C422   C     0.32526   0.79530   0.56561   0.00000  Uiso   1.00
H423   H     0.33972   0.80545   0.54630   0.00000  Uiso   1.00
C424   C     0.32514   0.74820   0.93423   0.00000  Uiso   1.00
C425   C     0.32526   0.70470   0.93439   0.00000  Uiso   1.00
H426   H     0.33972   0.69455   0.95370   0.00000  Uiso   1.00
C427   C     0.32514   0.56577   0.75180   0.00000  Uiso   1.00
C428   C     0.32526   0.56561   0.79530   0.00000  Uiso   1.00
H429   H     0.33972   0.54630   0.80545   0.00000  Uiso   1.00
C430   C     0.37304   0.81577   0.81577   0.00000  Uiso   1.00
C431   C     0.34047   0.81561   0.81561   0.00000  Uiso   1.00
H432   H     0.33287   0.79630   0.79630   0.00000  Uiso   1.00
C433   C     0.37304   0.68423   0.68423   0.00000  Uiso   1.00
C434   C     0.34047   0.68439   0.68439   0.00000  Uiso   1.00
H435   H     0.33287   0.70370   0.70370   0.00000  Uiso   1.00
C436   C     0.41396   0.80740   0.58040   0.00000  Uiso   1.00
N437   N     0.40692   0.76860   0.59035   0.00000  Uiso   1.00
H438   H     0.44350   0.69535   0.55865   0.00000  Uiso   1.00
H439   H     0.40554   0.82965   0.59100   0.00000  Uiso   1.00
C440   C     0.41396   0.69260   0.91960   0.00000  Uiso   1.00
N441   N     0.40692   0.73140   0.90965   0.00000  Uiso   1.00
H442   H     0.44350   0.80465   0.94135   0.00000  Uiso   1.00
H443   H     0.40554   0.67035   0.90900   0.00000  Uiso   1.00
C444   C     0.43459   0.55285   0.80740   0.00000  Uiso   1.00
N445   N     0.44204   0.54345   0.76860   0.00000  Uiso   1.00
H446   H     0.41831   0.59230   0.69535   0.00000  Uiso   1.00
H447   H     0.44253   0.54160   0.82965   0.00000  Uiso   1.00
N448   N     0.49393   0.79345   0.98140   0.00000  Uiso   1.00
N449   N     0.49393   0.70655   0.51860   0.00000  Uiso   1.00
H450   H     0.41531   0.80865   0.65770   0.00000  Uiso   1.00
C451   C     0.41737   0.83040   0.80285   0.00000  Uiso   1.00
N452   N     0.38832   0.84035   0.79345   0.00000  Uiso   1.00
H453   H     0.43403   0.84100   0.79160   0.00000  Uiso   1.00
H454   H     0.41531   0.69135   0.84230   0.00000  Uiso   1.00
C455   C     0.41737   0.66960   0.69715   0.00000  Uiso   1.00
N456   N     0.38832   0.65965   0.70655   0.00000  Uiso   1.00
H457   H     0.43403   0.65900   0.70840   0.00000  Uiso   1.00
H458   H     0.41531   0.65770   0.80865   0.00000  Uiso   1.00
C459   C     0.41737   0.80285   0.83040   0.00000  Uiso   1.00
N460   N     0.38832   0.79345   0.84035   0.00000  Uiso   1.00
H461   H     0.43403   0.79160   0.84100   0.00000  Uiso   1.00
H462   H     0.41531   0.84230   0.69135   0.00000  Uiso   1.00
C463   C     0.41737   0.69715   0.66960   0.00000  Uiso   1.00
N464   N     0.38832   0.70655   0.65965   0.00000  Uiso   1.00
H465   H     0.43403   0.70840   0.65900   0.00000  Uiso   1.00
C466   C     0.41396   0.58040   0.80740   0.00000  Uiso   1.00
N467   N     0.40692   0.59035   0.76860   0.00000  Uiso   1.00
H468   H     0.44350   0.55865   0.69535   0.00000  Uiso   1.00
H469   H     0.40554   0.59100   0.82965   0.00000  Uiso   1.00
N470   N     0.40692   0.90965   0.73140   0.00000  Uiso   1.00
C471   C     0.43459   0.69260   0.94715   0.00000  Uiso   1.00
N472   N     0.44204   0.73140   0.95655   0.00000  Uiso   1.00
H473   H     0.41831   0.80465   0.90770   0.00000  Uiso   1.00
H474   H     0.44253   0.67035   0.95840   0.00000  Uiso   1.00
C475   C     0.43459   0.80740   0.55285   0.00000  Uiso   1.00
N476   N     0.44204   0.76860   0.54345   0.00000  Uiso   1.00
H477   H     0.41831   0.69535   0.59230   0.00000  Uiso   1.00
H478   H     0.44253   0.82965   0.54160   0.00000  Uiso   1.00
N479   N     0.49393   0.51860   0.70655   0.00000  Uiso   1.00
Zn480  Zn    0.46799   0.75000   0.50000   0.00000  Uiso   1.00
Zn481  Zn    0.37439   0.87500   0.75000   0.00000  Uiso   1.00
Zn482  Zn    0.37439   0.62500   0.75000   0.00000  Uiso   1.00
Zn483  Zn    0.37439   0.75000   0.87500   0.00000  Uiso   1.00
Zn484  Zn    0.37439   0.75000   0.62500   0.00000  Uiso   1.00
Zn485  Zn    0.46799   0.50000   0.75000   0.00000  Uiso   1.00
C486   C     0.42364   0.74820   0.56577   0.00000  Uiso   1.00
C487   C     0.42352   0.70470   0.56561   0.00000  Uiso   1.00
H488   H     0.40906   0.69455   0.54630   0.00000  Uiso   1.00
C489   C     0.42364   0.75180   0.93423   0.00000  Uiso   1.00
C490   C     0.42352   0.79530   0.93439   0.00000  Uiso   1.00
H491   H     0.40906   0.80545   0.95370   0.00000  Uiso   1.00
C492   C     0.42364   0.56577   0.74820   0.00000  Uiso   1.00
C493   C     0.42352   0.56561   0.70470   0.00000  Uiso   1.00
H494   H     0.40906   0.54630   0.69455   0.00000  Uiso   1.00
C495   C     0.37574   0.81577   0.68423   0.00000  Uiso   1.00
C496   C     0.40831   0.81561   0.68439   0.00000  Uiso   1.00
H497   H     0.41591   0.79630   0.70370   0.00000  Uiso   1.00
C498   C     0.37574   0.68423   0.81577   0.00000  Uiso   1.00
C499   C     0.40831   0.68439   0.81561   0.00000  Uiso   1.00
H500   H     0.41591   0.70370   0.79630   0.00000  Uiso   1.00
loop_
_geom_bond_atom_site_label_1
_geom_bond_atom_site_label_2
_geom_bond_distance
_geom_bond_site_symmetry_2
_ccdc_geom_bond_type
C1     N2      1.386   .     A
C1     H4      0.913   .     S
C1     C37     1.313   .     A
N2     Zn109   1.975   .     S
N2     C46     1.313   .     A
H3     C47     0.981   .     S
C5     N6      1.386   .     A
C5     H8      0.913   .     S
C5     C41     1.313   .     A
N6     Zn108   1.975   .     S
N6     C49     1.313   .     A
H7     C50     0.981   .     S
N9     Zn295   1.975   .     S
N10    Zn45    1.975   .     S
C11    N12     1.386   .     A
C11    H14     0.913   .     S
C11    C32     1.313   .     A
N12    Zn170   1.975   .     S
N12    C52     1.313   .     A
H13    C53     0.981   .     S
C15    N16     1.386   .     A
C15    H17     0.913   .     S
C15    C27     1.313   .     A
N16    Zn106   1.975   .     S
N16    C119    1.313   .     A
H18    C56     0.981   .     S
C19    N20     1.386   .     A
C19    H21     0.913   .     S
C19    C23     1.313   .     A
N20    Zn107   1.975   .     S
N20    C122    1.313   .     A
H22    C59     0.981   .     S
C23    N24     1.386   .     A
C23    H25     0.913   .     S
N24    Zn108   1.975   .     S
N24    C122    1.313   .     A
H26    C56     0.981   .     S
C27    N28     1.386   .     A
C27    H29     0.913   .     S
N28    Zn109   1.975   .     S
N28    C119    1.313   .     A
H30    C59     0.981   .     S
N31    Zn107   1.975   .     S
C32    N33     1.386   .     A
C32    H35     0.913   .     S
N33    Zn106   1.975   .     S
N33    C52     1.313   .     A
H34    C53     0.981   .     S
N36    Zn170   1.975   .     S
C37    N38     1.386   .     A
C37    H40     0.913   .     S
N38    Zn45    1.975   .     S
N38    C46     1.313   .     A
H39    C47     0.981   .     S
C41    N42     1.386   .     A
C41    H44     0.913   .     S
N42    Zn295   1.975   .     S
N42    C49     1.313   .     A
H43    C50     0.981   .     S
Zn45   N259    1.975   1_554 S
Zn45   N292    1.975   1_554 S
C46    C47     1.466   .     S
C47    H48     0.982   .     S
C49    C50     1.466   .     S
C50    H51     0.982   .     S
C52    C53     1.466   .     S
C53    H54     0.982   .     S
C55    C56     1.466   .     S
C55    N77     1.313   .     A
C55    N85     1.313   .     A
C56    H57     0.982   .     S
C58    C59     1.466   .     S
C58    N81     1.313   .     A
C58    N89     1.313   .     A
C59    H60     0.982   .     S
C61    N62     1.386   .     A
C61    H64     0.913   .     S
C61    C100    1.313   .     A
N62    Zn109   1.975   .     S
N62    C110    1.313   .     A
H63    C111    0.981   .     S
C65    N66     1.386   .     A
C65    H68     0.913   .     S
C65    C96     1.313   .     A
N66    Zn108   1.975   .     S
N66    C113    1.313   .     A
H67    C114    0.981   .     S
C69    N70     1.386   .     A
C69    H72     0.913   .     S
C69    C92     1.313   .     A
N70    Zn235   1.975   .     S
N70    C116    1.313   .     A
H71    C117    0.981   .     S
N73    Zn355   1.975   .     S
N74    Zn105   1.975   .     S
H75    C120    0.981   .     S
C76    N77     1.386   .     A
C76    H78     0.913   .     S
C76    C84     1.313   .     A
N77    Zn106   1.975   .     S
H79    C123    0.981   .     S
C80    N81     1.386   .     A
C80    H82     0.913   .     S
C80    C88     1.313   .     A
N81    Zn107   1.975   .     S
H83    C123    0.981   .     S
C84    N85     1.386   .     A
C84    H86     0.913   .     S
N85    Zn108   1.975   .     S
H87    C120    0.981   .     S
C88    N89     1.386   .     A
C88    H90     0.913   .     S
N89    Zn109   1.975   .     S
N91    Zn107   1.975   .     S
C92    N93     1.386   .     A
C92    H95     0.913   .     S
N93    Zn106   1.975   .     S
N93    C116    1.313   .     A
H94    C117    0.981   .     S
C96    N97     1.386   .     A
C96    H99     0.913   .     S
N97    Zn355   1.975   .     S
N97    C113    1.313   .     A
H98    C114    0.981   .     S
C100   N101    1.386   .     A
C100   H103    0.913   .     S
N101   Zn105   1.975   .     S
N101   C110    1.313   .     A
H102   C111    0.981   .     S
N104   Zn235   1.975   .     S
Zn105  N323    1.975   1_554 S
Zn105  N347    1.975   1_554 S
C110   C111    1.466   .     S
C111   H112    0.982   .     S
C113   C114    1.466   .     S
C114   H115    0.982   .     S
C116   C117    1.466   .     S
C117   H118    0.982   .     S
C119   C120    1.466   .     S
C120   H121    0.982   .     S
C122   C123    1.466   .     S
C123   H124    0.982   .     S
C125   N126    1.386   .     A
C125   H128    0.913   .     S
C125   C161    1.313   .     A
N126   Zn234   1.975   .     S
N126   C171    1.313   .     A
H127   C172    0.981   .     S
C129   N130    1.386   .     A
C129   H132    0.913   .     S
C129   C165    1.313   .     A
N130   Zn233   1.975   .     S
N130   C174    1.313   .     A
H131   C175    0.981   .     S
N133   Zn419   1.975   .     S
N134   Zn169   1.975   .     S
C135   N136    1.386   .     A
C135   H138    0.913   .     S
C135   C155    1.313   .     A
N136   Zn170   1.975   .     S
N136   C177    1.313   .     A
H137   C178    0.981   .     S
C139   N140    1.386   .     A
C139   H141    0.913   .     S
C139   C151    1.313   .     A
N140   Zn231   1.975   .     S
N140   C245    1.313   .     A
H142   C181    0.981   .     S
C143   N144    1.386   .     A
C143   H145    0.913   .     S
C143   C147    1.313   .     A
N144   Zn232   1.975   .     S
N144   C248    1.313   .     A
H146   C184    0.981   .     S
C147   N148    1.386   .     A
C147   H149    0.913   .     S
N148   Zn233   1.975   .     S
N148   C248    1.313   .     A
H150   C181    0.981   .     S
C151   N152    1.386   .     A
C151   H153    0.913   .     S
N152   Zn234   1.975   .     S
N152   C245    1.313   .     A
H154   C184    0.981   .     S
C155   N156    1.386   .     A
C155   H158    0.913   .     S
N156   Zn232   1.975   .     S
N156   C177    1.313   .     A
H157   C178    0.981   .     S
N159   Zn231   1.975   .     S
N160   Zn170   1.975   .     S
C161   N162    1.386   .     A
C161   H164    0.913   .     S
N162   Zn169   1.975   .     S
N162   C171    1.313   .     A
H163   C172    0.981   .     S
C165   N166    1.386   .     A
C165   H168    0.913   .     S
N166   Zn419   1.975   .     S
N166   C174    1.313   .     A
H167   C175    0.981   .     S
Zn169  N383    1.975   1_554 S
Zn169  N416    1.975   1_554 S
C171   C172    1.466   .     S
C172   H173    0.982   .     S
C174   C175    1.466   .     S
C175   H176    0.982   .     S
C177   C178    1.466   .     S
C178   H179    0.982   .     S
C180   C181    1.466   .     S
C180   N202    1.313   .     A
C180   N210    1.313   .     A
C181   H182    0.982   .     S
C183   C184    1.466   .     S
C183   N206    1.313   .     A
C183   N214    1.313   .     A
C184   H185    0.982   .     S
C186   N187    1.386   .     A
C186   H189    0.913   .     S
C186   C225    1.313   .     A
N187   Zn234   1.975   .     S
N187   C236    1.313   .     A
H188   C237    0.981   .     S
C190   N191    1.386   .     A
C190   H193    0.913   .     S
C190   C221    1.313   .     A
N191   Zn233   1.975   .     S
N191   C239    1.313   .     A
H192   C240    0.981   .     S
C194   N195    1.386   .     A
C194   H197    0.913   .     S
C194   C216    1.313   .     A
N195   Zn235   1.975   .     S
N195   C242    1.313   .     A
H196   C243    0.981   .     S
N198   Zn480   1.975   .     S
N199   Zn230   1.975   .     S
H200   C246    0.981   .     S
C201   N202    1.386   .     A
C201   H203    0.913   .     S
C201   C209    1.313   .     A
N202   Zn231   1.975   .     S
H204   C249    0.981   .     S
C205   N206    1.386   .     A
C205   H207    0.913   .     S
C205   C213    1.313   .     A
N206   Zn232   1.975   .     S
H208   C249    0.981   .     S
C209   N210    1.386   .     A
C209   H211    0.913   .     S
N210   Zn233   1.975   .     S
H212   C246    0.981   .     S
C213   N214    1.386   .     A
C213   H215    0.913   .     S
N214   Zn234   1.975   .     S
C216   N217    1.386   .     A
C216   H219    0.913   .     S
N217   Zn232   1.975   .     S
N217   C242    1.313   .     A
H218   C243    0.981   .     S
N220   Zn231   1.975   .     S
C221   N222    1.386   .     A
C221   H224    0.913   .     S
N222   Zn480   1.975   .     S
N222   C239    1.313   .     A
H223   C240    0.981   .     S
C225   N226    1.386   .     A
C225   H228    0.913   .     S
N226   Zn230   1.975   .     S
N226   C236    1.313   .     A
H227   C237    0.981   .     S
N229   Zn235   1.975   .     S
Zn230  N448    1.975   1_554 S
Zn230  N472    1.975   1_554 S
C236   C237    1.466   .     S
C237   H238    0.982   .     S
C239   C240    1.466   .     S
C240   H241    0.982   .     S
C242   C243    1.466   .     S
C243   H244    0.982   .     S
C245   C246    1.466   .     S
C246   H247    0.982   .     S
C248   C249    1.466   .     S
C249   H250    0.982   .     S
C251   N252    1.386   .     A
C251   H254    0.913   .     S
C251   C287    1.313   .     A
N252   Zn359   1.975   .     S
N252   C296    1.313   .     A
H253   C297    0.981   .     S
C255   N256    1.386   .     A
C255   H258    0.913   .     S
C255   C291    1.313   .     A
N256   Zn358   1.975   .     S
N256   C299    1.313   .     A
H257   C300    0.981   .     S
N259   Zn45    1.975   1_556 S
N260   Zn295   1.975   .     S
C261   N262    1.386   .     A
C261   H264    0.913   .     S
C261   C282    1.313   .     A
N262   Zn420   1.975   .     S
N262   C302    1.313   .     A
H263   C303    0.981   .     S
C265   N266    1.386   .     A
C265   H267    0.913   .     S
C265   C277    1.313   .     A
N266   Zn356   1.975   .     S
N266   C369    1.313   .     A
H268   C306    0.981   .     S
C269   N270    1.386   .     A
C269   H271    0.913   .     S
C269   C273    1.313   .     A
N270   Zn357   1.975   .     S
N270   C372    1.313   .     A
H272   C309    0.981   .     S
C273   N274    1.386   .     A
C273   H275    0.913   .     S
N274   Zn358   1.975   .     S
N274   C372    1.313   .     A
H276   C306    0.981   .     S
C277   N278    1.386   .     A
C277   H279    0.913   .     S
N278   Zn359   1.975   .     S
N278   C369    1.313   .     A
H280   C309    0.981   .     S
N281   Zn357   1.975   .     S
C282   N283    1.386   .     A
C282   H285    0.913   .     S
N283   Zn356   1.975   .     S
N283   C302    1.313   .     A
H284   C303    0.981   .     S
N286   Zn420   1.975   .     S
C287   N288    1.386   .     A
C287   H290    0.913   .     S
N288   Zn295   1.975   .     S
N288   C296    1.313   .     A
H289   C297    0.981   .     S
C291   N292    1.386   .     A
C291   H294    0.913   .     S
N292   Zn45    1.975   1_556 S
N292   C299    1.313   .     A
H293   C300    0.981   .     S
C296   C297    1.466   .     S
C297   H298    0.982   .     S
C299   C300    1.466   .     S
C300   H301    0.982   .     S
C302   C303    1.466   .     S
C303   H304    0.982   .     S
C305   C306    1.466   .     S
C305   N327    1.313   .     A
C305   N335    1.313   .     A
C306   H307    0.982   .     S
C308   C309    1.466   .     S
C308   N331    1.313   .     A
C308   N339    1.313   .     A
C309   H310    0.982   .     S
C311   N312    1.386   .     A
C311   H314    0.913   .     S
C311   C350    1.313   .     A
N312   Zn359   1.975   .     S
N312   C360    1.313   .     A
H313   C361    0.981   .     S
C315   N316    1.386   .     A
C315   H318    0.913   .     S
C315   C346    1.313   .     A
N316   Zn358   1.975   .     S
N316   C363    1.313   .     A
H317   C364    0.981   .     S
C319   N320    1.386   .     A
C319   H322    0.913   .     S
C319   C342    1.313   .     A
N320   Zn485   1.975   .     S
N320   C366    1.313   .     A
H321   C367    0.981   .     S
N323   Zn105   1.975   1_556 S
N324   Zn355   1.975   .     S
H325   C370    0.981   .     S
C326   N327    1.386   .     A
C326   H328    0.913   .     S
C326   C334    1.313   .     A
N327   Zn356   1.975   .     S
H329   C373    0.981   .     S
C330   N331    1.386   .     A
C330   H332    0.913   .     S
C330   C338    1.313   .     A
N331   Zn357   1.975   .     S
H333   C373    0.981   .     S
C334   N335    1.386   .     A
C334   H336    0.913   .     S
N335   Zn358   1.975   .     S
H337   C370    0.981   .     S
C338   N339    1.386   .     A
C338   H340    0.913   .     S
N339   Zn359   1.975   .     S
N341   Zn357   1.975   .     S
C342   N343    1.386   .     A
C342   H345    0.913   .     S
N343   Zn356   1.975   .     S
N343   C366    1.313   .     A
H344   C367    0.981   .     S
C346   N347    1.386   .     A
C346   H349    0.913   .     S
N347   Zn105   1.975   1_556 S
N347   C363    1.313   .     A
H348   C364    0.981   .     S
C350   N351    1.386   .     A
C350   H353    0.913   .     S
N351   Zn355   1.975   .     S
N351   C360    1.313   .     A
H352   C361    0.981   .     S
N354   Zn485   1.975   .     S
C360   C361    1.466   .     S
C361   H362    0.982   .     S
C363   C364    1.466   .     S
C364   H365    0.982   .     S
C366   C367    1.466   .     S
C367   H368    0.982   .     S
C369   C370    1.466   .     S
C370   H371    0.982   .     S
C372   C373    1.466   .     S
C373   H374    0.982   .     S
C375   N376    1.386   .     A
C375   H378    0.913   .     S
C375   C411    1.313   .     A
N376   Zn484   1.975   .     S
N376   C421    1.313   .     A
H377   C422    0.981   .     S
C379   N380    1.386   .     A
C379   H382    0.913   .     S
C379   C415    1.313   .     A
N380   Zn483   1.975   .     S
N380   C424    1.313   .     A
H381   C425    0.981   .     S
N383   Zn169   1.975   1_556 S
N384   Zn419   1.975   .     S
C385   N386    1.386   .     A
C385   H388    0.913   .     S
C385   C405    1.313   .     A
N386   Zn420   1.975   .     S
N386   C427    1.313   .     A
H387   C428    0.981   .     S
C389   N390    1.386   .     A
C389   H391    0.913   .     S
C389   C401    1.313   .     A
N390   Zn481   1.975   .     S
N390   C495    1.313   .     A
H392   C431    0.981   .     S
C393   N394    1.386   .     A
C393   H395    0.913   .     S
C393   C397    1.313   .     A
N394   Zn482   1.975   .     S
N394   C498    1.313   .     A
H396   C434    0.981   .     S
C397   N398    1.386   .     A
C397   H399    0.913   .     S
N398   Zn483   1.975   .     S
N398   C498    1.313   .     A
H400   C431    0.981   .     S
C401   N402    1.386   .     A
C401   H403    0.913   .     S
N402   Zn484   1.975   .     S
N402   C495    1.313   .     A
H404   C434    0.981   .     S
C405   N406    1.386   .     A
C405   H408    0.913   .     S
N406   Zn482   1.975   .     S
N406   C427    1.313   .     A
H407   C428    0.981   .     S
N409   Zn481   1.975   .     S
N410   Zn420   1.975   .     S
C411   N412    1.386   .     A
C411   H414    0.913   .     S
N412   Zn419   1.975   .     S
N412   C421    1.313   .     A
H413   C422    0.981   .     S
C415   N416    1.386   .     A
C415   H418    0.913   .     S
N416   Zn169   1.975   1_556 S
N416   C424    1.313   .     A
H417   C425    0.981   .     S
C421   C422    1.466   .     S
C422   H423    0.982   .     S
C424   C425    1.466   .     S
C425   H426    0.982   .     S
C427   C428    1.466   .     S
C428   H429    0.982   .     S
C430   C431    1.466   .     S
C430   N452    1.313   .     A
C430   N460    1.313   .     A
C431   H432    0.982   .     S
C433   C434    1.466   .     S
C433   N456    1.313   .     A
C433   N464    1.313   .     A
C434   H435    0.982   .     S
C436   N437    1.386   .     A
C436   H439    0.913   .     S
C436   C475    1.313   .     A
N437   Zn484   1.975   .     S
N437   C486    1.313   .     A
H438   C487    0.981   .     S
C440   N441    1.386   .     A
C440   H443    0.913   .     S
C440   C471    1.313   .     A
N441   Zn483   1.975   .     S
N441   C489    1.313   .     A
H442   C490    0.981   .     S
C444   N445    1.386   .     A
C444   H447    0.913   .     S
C444   C466    1.313   .     A
N445   Zn485   1.975   .     S
N445   C492    1.313   .     A
H446   C493    0.981   .     S
N448   Zn230   1.975   1_556 S
N449   Zn480   1.975   .     S
H450   C496    0.981   .     S
C451   N452    1.386   .     A
C451   H453    0.913   .     S
C451   C459    1.313   .     A
N452   Zn481   1.975   .     S
H454   C499    0.981   .     S
C455   N456    1.386   .     A
C455   H457    0.913   .     S
C455   C463    1.313   .     A
N456   Zn482   1.975   .     S
H458   C499    0.981   .     S
C459   N460    1.386   .     A
C459   H461    0.913   .     S
N460   Zn483   1.975   .     S
H462   C496    0.981   .     S
C463   N464    1.386   .     A
C463   H465    0.913   .     S
N464   Zn484   1.975   .     S
C466   N467    1.386   .     A
C466   H469    0.913   .     S
N467   Zn482   1.975   .     S
N467   C492    1.313   .     A
H468   C493    0.981   .     S
N470   Zn481   1.975   .     S
C471   N472    1.386   .     A
C471   H474    0.913   .     S
N472   Zn230   1.975   1_556 S
N472   C489    1.313   .     A
H473   C490    0.981   .     S
C475   N476    1.386   .     A
C475   H478    0.913   .     S
N476   Zn480   1.975   .     S
N476   C486    1.313   .     A
H477   C487    0.981   .     S
N479   Zn485   1.975   .     S
C486   C487    1.466   .     S
C487   H488    0.982   .     S
C489   C490    1.466   .     S
C490   H491    0.982   .     S
C492   C493    1.466   .     S
C493   H494    0.982   .     S
C495   C496    1.466   .     S
C496   H497    0.982   .     S
C498   C499    1.466   .     S
C499   H500    0.982   .     S
